/*---------------------------------------------------------------------------*\
  =========                 |
  \\      /  F ield         | OpenFOAM: The Open Source CFD Toolbox
   \\    /   O peration     | Website:  https://openfoam.org
    \\  /    A nd           | Version:  10
     \\/     M anipulation  |
\*---------------------------------------------------------------------------*/
Build  : 10-c4cf895ad8fa
Exec   : icoHeatFoam
Date   : Dec 13 2023
Time   : 13:56:19
Host   : "HP17"
PID    : 12522
I/O    : uncollated
Case   : /home/mkh/OpenFOAM/mkh-10/run/test2/cavity
nProcs : 1
sigFpe : Enabling floating point exception trapping (FOAM_SIGFPE).
fileModificationChecking : Monitoring run-time modified files using timeStampMaster (fileModificationSkew 10)
allowSystemOperations : Allowing user-supplied system call operations

// * * * * * * * * * * * * * * * * * * * * * * * * * * * * * * * * * * * * * //
Create time

Create mesh for time = 0

Reading physicalProperties

Reading field p

Reading field T

calc field D

Reading field U

Reading/calculating face flux field phi


Starting time loop

Time = 0.005s

Courant Number mean: 0 max: 0
smoothSolver:  Solving for T, Initial residual = 1, Final residual = 9.54065e-06, No Iterations 15
smoothSolver:  Solving for Ux, Initial residual = 1, Final residual = 8.90511e-06, No Iterations 19
smoothSolver:  Solving for Uy, Initial residual = 0, Final residual = 0, No Iterations 0
DICPCG:  Solving for p, Initial residual = 1, Final residual = 0.0492854, No Iterations 12
time step continuity errors : sum local = 0.000466513, global = -1.79995e-19, cumulative = -1.79995e-19
DICPCG:  Solving for p, Initial residual = 0.590864, Final residual = 2.65225e-07, No Iterations 35
time step continuity errors : sum local = 2.74685e-09, global = -2.6445e-19, cumulative = -4.44444e-19
ExecutionTime = 0.008951 s  ClockTime = 0 s

Time = 0.01s

Courant Number mean: 0.0976825 max: 0.585607
smoothSolver:  Solving for T, Initial residual = 0.125642, Final residual = 9.51931e-06, No Iterations 19
smoothSolver:  Solving for Ux, Initial residual = 0.160686, Final residual = 6.83031e-06, No Iterations 19
smoothSolver:  Solving for Uy, Initial residual = 0.260828, Final residual = 9.65939e-06, No Iterations 18
DICPCG:  Solving for p, Initial residual = 0.428925, Final residual = 0.0103739, No Iterations 22
time step continuity errors : sum local = 0.000110788, global = -4.54618e-19, cumulative = -8.99063e-19
DICPCG:  Solving for p, Initial residual = 0.30209, Final residual = 5.26569e-07, No Iterations 33
time step continuity errors : sum local = 6.61987e-09, global = 4.12846e-19, cumulative = -4.86217e-19
ExecutionTime = 0.010611 s  ClockTime = 0 s

Time = 0.015s

Courant Number mean: 0.144686 max: 0.758934
smoothSolver:  Solving for T, Initial residual = 0.0480153, Final residual = 8.29941e-06, No Iterations 28
smoothSolver:  Solving for Ux, Initial residual = 0.0447632, Final residual = 9.12473e-06, No Iterations 15
smoothSolver:  Solving for Uy, Initial residual = 0.0817804, Final residual = 6.96014e-06, No Iterations 17
DICPCG:  Solving for p, Initial residual = 0.131584, Final residual = 0.00445878, No Iterations 11
time step continuity errors : sum local = 5.30007e-05, global = -6.94832e-21, cumulative = -4.93165e-19
DICPCG:  Solving for p, Initial residual = 0.0973392, Final residual = 9.15339e-07, No Iterations 31
time step continuity errors : sum local = 7.57271e-09, global = 5.37502e-19, cumulative = 4.43369e-20
ExecutionTime = 0.012239 s  ClockTime = 0 s

Time = 0.02s

Courant Number mean: 0.167375 max: 0.800501
smoothSolver:  Solving for T, Initial residual = 0.0300809, Final residual = 8.46085e-06, No Iterations 35
smoothSolver:  Solving for Ux, Initial residual = 0.0255033, Final residual = 6.64964e-06, No Iterations 15
smoothSolver:  Solving for Uy, Initial residual = 0.0467692, Final residual = 7.05331e-06, No Iterations 16
DICPCG:  Solving for p, Initial residual = 0.0699325, Final residual = 0.00118408, No Iterations 22
time step continuity errors : sum local = 9.60201e-06, global = 3.4146e-19, cumulative = 3.85797e-19
DICPCG:  Solving for p, Initial residual = 0.0550257, Final residual = 9.8463e-07, No Iterations 30
time step continuity errors : sum local = 8.36497e-09, global = 2.2185e-19, cumulative = 6.07647e-19
ExecutionTime = 0.013897 s  ClockTime = 0 s

Time = 0.025s

Courant Number mean: 0.182124 max: 0.819978
smoothSolver:  Solving for T, Initial residual = 0.0242917, Final residual = 9.44329e-06, No Iterations 40
smoothSolver:  Solving for Ux, Initial residual = 0.014788, Final residual = 6.26013e-06, No Iterations 14
smoothSolver:  Solving for Uy, Initial residual = 0.0306892, Final residual = 8.61293e-06, No Iterations 15
DICPCG:  Solving for p, Initial residual = 0.0366985, Final residual = 0.000863614, No Iterations 11
time step continuity errors : sum local = 7.55947e-06, global = -3.03079e-19, cumulative = 3.04568e-19
DICPCG:  Solving for p, Initial residual = 0.0280626, Final residual = 6.16271e-07, No Iterations 30
time step continuity errors : sum local = 5.01703e-09, global = -1.15284e-18, cumulative = -8.48274e-19
ExecutionTime = 0.015537 s  ClockTime = 0 s

Time = 0.03s

Courant Number mean: 0.192227 max: 0.830396
smoothSolver:  Solving for T, Initial residual = 0.0208452, Final residual = 9.62845e-06, No Iterations 44
smoothSolver:  Solving for Ux, Initial residual = 0.0102557, Final residual = 7.94596e-06, No Iterations 13
smoothSolver:  Solving for Uy, Initial residual = 0.0210478, Final residual = 6.0432e-06, No Iterations 15
DICPCG:  Solving for p, Initial residual = 0.0245045, Final residual = 0.000426692, No Iterations 22
time step continuity errors : sum local = 3.44871e-06, global = 2.8455e-20, cumulative = -8.19819e-19
DICPCG:  Solving for p, Initial residual = 0.0188595, Final residual = 8.71694e-07, No Iterations 29
time step continuity errors : sum local = 7.07691e-09, global = 1.06806e-18, cumulative = 2.48237e-19
ExecutionTime = 0.017212 s  ClockTime = 0 s

Time = 0.035s

Courant Number mean: 0.199394 max: 0.836904
smoothSolver:  Solving for T, Initial residual = 0.0177483, Final residual = 8.98706e-06, No Iterations 47
smoothSolver:  Solving for Ux, Initial residual = 0.007333, Final residual = 5.9169e-06, No Iterations 13
smoothSolver:  Solving for Uy, Initial residual = 0.015403, Final residual = 7.71549e-06, No Iterations 14
DICPCG:  Solving for p, Initial residual = 0.017317, Final residual = 0.000644985, No Iterations 11
time step continuity errors : sum local = 7.1303e-06, global = 5.28403e-19, cumulative = 7.7664e-19
DICPCG:  Solving for p, Initial residual = 0.0134979, Final residual = 5.0624e-07, No Iterations 29
time step continuity errors : sum local = 4.11334e-09, global = -1.46659e-18, cumulative = -6.89951e-19
ExecutionTime = 0.018839 s  ClockTime = 0 s

Time = 0.04s

Courant Number mean: 0.204644 max: 0.841187
smoothSolver:  Solving for T, Initial residual = 0.0145993, Final residual = 9.18874e-06, No Iterations 48
smoothSolver:  Solving for Ux, Initial residual = 0.00534965, Final residual = 7.51204e-06, No Iterations 12
smoothSolver:  Solving for Uy, Initial residual = 0.011763, Final residual = 5.89988e-06, No Iterations 14
DICPCG:  Solving for p, Initial residual = 0.0136962, Final residual = 0.000593317, No Iterations 11
time step continuity errors : sum local = 6.688e-06, global = 4.01018e-19, cumulative = -2.88933e-19
DICPCG:  Solving for p, Initial residual = 0.0102734, Final residual = 7.2894e-07, No Iterations 28
time step continuity errors : sum local = 5.96377e-09, global = -2.27475e-19, cumulative = -5.16408e-19
ExecutionTime = 0.020346 s  ClockTime = 0 s

Time = 0.045s

Courant Number mean: 0.208556 max: 0.844111
smoothSolver:  Solving for T, Initial residual = 0.0114985, Final residual = 9.11487e-06, No Iterations 48
smoothSolver:  Solving for Ux, Initial residual = 0.00428148, Final residual = 6.29225e-06, No Iterations 12
smoothSolver:  Solving for Uy, Initial residual = 0.00854004, Final residual = 7.4352e-06, No Iterations 13
DICPCG:  Solving for p, Initial residual = 0.0109511, Final residual = 0.000470878, No Iterations 21
time step continuity errors : sum local = 3.83296e-06, global = 6.40734e-19, cumulative = 1.24327e-19
DICPCG:  Solving for p, Initial residual = 0.00862768, Final residual = 8.13171e-07, No Iterations 27
time step continuity errors : sum local = 6.63188e-09, global = -1.09519e-18, cumulative = -9.70861e-19
ExecutionTime = 0.021905 s  ClockTime = 0 s

Time = 0.05s

Courant Number mean: 0.211518 max: 0.846202
smoothSolver:  Solving for T, Initial residual = 0.00868207, Final residual = 9.18197e-06, No Iterations 47
smoothSolver:  Solving for Ux, Initial residual = 0.00311534, Final residual = 7.91266e-06, No Iterations 11
smoothSolver:  Solving for Uy, Initial residual = 0.0067391, Final residual = 5.92713e-06, No Iterations 13
DICPCG:  Solving for p, Initial residual = 0.00744355, Final residual = 0.000222577, No Iterations 9
time step continuity errors : sum local = 2.04897e-06, global = 7.69259e-20, cumulative = -8.93935e-19
DICPCG:  Solving for p, Initial residual = 0.00572417, Final residual = 4.29578e-07, No Iterations 28
time step continuity errors : sum local = 3.52853e-09, global = 1.46295e-18, cumulative = 5.69017e-19
ExecutionTime = 0.023439 s  ClockTime = 0 s

Time = 0.055s

Courant Number mean: 0.21382 max: 0.847682
smoothSolver:  Solving for T, Initial residual = 0.00632791, Final residual = 9.72971e-06, No Iterations 45
smoothSolver:  Solving for Ux, Initial residual = 0.0023784, Final residual = 6.13546e-06, No Iterations 11
smoothSolver:  Solving for Uy, Initial residual = 0.00526521, Final residual = 7.98841e-06, No Iterations 12
DICPCG:  Solving for p, Initial residual = 0.00564918, Final residual = 0.000273181, No Iterations 8
time step continuity errors : sum local = 2.32443e-06, global = -6.38661e-19, cumulative = -6.96441e-20
DICPCG:  Solving for p, Initial residual = 0.00433468, Final residual = 9.31993e-07, No Iterations 27
time step continuity errors : sum local = 7.64137e-09, global = -2.59983e-19, cumulative = -3.29627e-19
ExecutionTime = 0.025095 s  ClockTime = 0 s

Time = 0.06s

Courant Number mean: 0.215622 max: 0.848767
smoothSolver:  Solving for T, Initial residual = 0.00448919, Final residual = 9.67132e-06, No Iterations 43
smoothSolver:  Solving for Ux, Initial residual = 0.00184163, Final residual = 8.27211e-06, No Iterations 10
smoothSolver:  Solving for Uy, Initial residual = 0.00410302, Final residual = 6.23524e-06, No Iterations 12
DICPCG:  Solving for p, Initial residual = 0.00421376, Final residual = 0.000176406, No Iterations 8
time step continuity errors : sum local = 1.46415e-06, global = 9.39677e-20, cumulative = -2.35659e-19
DICPCG:  Solving for p, Initial residual = 0.00323764, Final residual = 6.08542e-07, No Iterations 27
time step continuity errors : sum local = 4.98427e-09, global = -7.00953e-19, cumulative = -9.36612e-19
ExecutionTime = 0.026934 s  ClockTime = 0 s

Time = 0.065s

Courant Number mean: 0.217016 max: 0.84957
smoothSolver:  Solving for T, Initial residual = 0.00312413, Final residual = 9.21956e-06, No Iterations 41
smoothSolver:  Solving for Ux, Initial residual = 0.00144586, Final residual = 6.54935e-06, No Iterations 10
smoothSolver:  Solving for Uy, Initial residual = 0.00319323, Final residual = 8.38135e-06, No Iterations 11
DICPCG:  Solving for p, Initial residual = 0.00326234, Final residual = 0.000126955, No Iterations 8
time step continuity errors : sum local = 1.16469e-06, global = -6.33786e-19, cumulative = -1.5704e-18
DICPCG:  Solving for p, Initial residual = 0.00249591, Final residual = 4.50073e-07, No Iterations 27
time step continuity errors : sum local = 3.69196e-09, global = 3.08952e-19, cumulative = -1.26145e-18
ExecutionTime = 0.028863 s  ClockTime = 0 s

Time = 0.07s

Courant Number mean: 0.218112 max: 0.850168
smoothSolver:  Solving for T, Initial residual = 0.00214556, Final residual = 9.82873e-06, No Iterations 38
smoothSolver:  Solving for Ux, Initial residual = 0.00113236, Final residual = 8.85193e-06, No Iterations 9
smoothSolver:  Solving for Uy, Initial residual = 0.00252163, Final residual = 6.61264e-06, No Iterations 11
DICPCG:  Solving for p, Initial residual = 0.00255191, Final residual = 8.89572e-05, No Iterations 8
time step continuity errors : sum local = 8.20567e-07, global = -8.86738e-20, cumulative = -1.35012e-18
DICPCG:  Solving for p, Initial residual = 0.00193741, Final residual = 8.62949e-07, No Iterations 26
time step continuity errors : sum local = 7.0776e-09, global = 3.13667e-19, cumulative = -1.03645e-18
ExecutionTime = 0.030755 s  ClockTime = 0 s

Time = 0.075s

Courant Number mean: 0.218968 max: 0.85062
smoothSolver:  Solving for T, Initial residual = 0.00146111, Final residual = 8.95721e-06, No Iterations 36
smoothSolver:  Solving for Ux, Initial residual = 0.000905767, Final residual = 7.09195e-06, No Iterations 9
smoothSolver:  Solving for Uy, Initial residual = 0.00195698, Final residual = 8.86913e-06, No Iterations 10
DICPCG:  Solving for p, Initial residual = 0.0020251, Final residual = 9.97132e-05, No Iterations 8
time step continuity errors : sum local = 1.16274e-06, global = 1.36452e-18, cumulative = 3.28064e-19
DICPCG:  Solving for p, Initial residual = 0.0015484, Final residual = 6.39837e-07, No Iterations 26
time step continuity errors : sum local = 5.26716e-09, global = 9.23134e-20, cumulative = 4.20378e-19
ExecutionTime = 0.032399 s  ClockTime = 0 s

Time = 0.08s

Courant Number mean: 0.219637 max: 0.850962
smoothSolver:  Solving for T, Initial residual = 0.000989603, Final residual = 9.27307e-06, No Iterations 33
smoothSolver:  Solving for Ux, Initial residual = 0.000696643, Final residual = 9.35244e-06, No Iterations 8
smoothSolver:  Solving for Uy, Initial residual = 0.00160576, Final residual = 7.20517e-06, No Iterations 10
DICPCG:  Solving for p, Initial residual = 0.00168164, Final residual = 8.082e-05, No Iterations 18
time step continuity errors : sum local = 6.6045e-07, global = -2.39882e-19, cumulative = 1.80495e-19
DICPCG:  Solving for p, Initial residual = 0.00128189, Final residual = 4.67748e-07, No Iterations 27
time step continuity errors : sum local = 3.82965e-09, global = 1.49223e-19, cumulative = 3.29719e-19
ExecutionTime = 0.034076 s  ClockTime = 0 s

Time = 0.085s

Courant Number mean: 0.220165 max: 0.851223
smoothSolver:  Solving for T, Initial residual = 0.000668543, Final residual = 9.54033e-06, No Iterations 30
smoothSolver:  Solving for Ux, Initial residual = 0.000565664, Final residual = 7.67286e-06, No Iterations 8
smoothSolver:  Solving for Uy, Initial residual = 0.00121959, Final residual = 9.51094e-06, No Iterations 9
DICPCG:  Solving for p, Initial residual = 0.00124457, Final residual = 5.34735e-05, No Iterations 9
time step continuity errors : sum local = 6.63043e-07, global = -1.00937e-18, cumulative = -6.79648e-19
DICPCG:  Solving for p, Initial residual = 0.000961306, Final residual = 9.04424e-07, No Iterations 24
time step continuity errors : sum local = 7.49737e-09, global = 4.08627e-19, cumulative = -2.71021e-19
ExecutionTime = 0.035539 s  ClockTime = 0 s

Time = 0.09s

Courant Number mean: 0.220582 max: 0.851426
smoothSolver:  Solving for T, Initial residual = 0.000451474, Final residual = 9.79086e-06, No Iterations 27
smoothSolver:  Solving for Ux, Initial residual = 0.000435965, Final residual = 5.89267e-06, No Iterations 8
smoothSolver:  Solving for Uy, Initial residual = 0.00100471, Final residual = 7.75951e-06, No Iterations 9
DICPCG:  Solving for p, Initial residual = 0.0010537, Final residual = 4.32386e-05, No Iterations 18
time step continuity errors : sum local = 3.51032e-07, global = 5.16078e-19, cumulative = 2.45057e-19
DICPCG:  Solving for p, Initial residual = 0.000802044, Final residual = 5.9584e-07, No Iterations 26
time step continuity errors : sum local = 4.8686e-09, global = 1.66346e-19, cumulative = 4.11403e-19
ExecutionTime = 0.037096 s  ClockTime = 0 s

Time = 0.095s

Courant Number mean: 0.220911 max: 0.851579
smoothSolver:  Solving for T, Initial residual = 0.000305428, Final residual = 8.75843e-06, No Iterations 25
smoothSolver:  Solving for Ux, Initial residual = 0.000354079, Final residual = 8.27344e-06, No Iterations 7
smoothSolver:  Solving for Uy, Initial residual = 0.000764935, Final residual = 5.96688e-06, No Iterations 9
DICPCG:  Solving for p, Initial residual = 0.000761348, Final residual = 3.53817e-05, No Iterations 8
time step continuity errors : sum local = 3.99325e-07, global = -1.09055e-18, cumulative = -6.79152e-19
DICPCG:  Solving for p, Initial residual = 0.000581008, Final residual = 7.84307e-07, No Iterations 25
time step continuity errors : sum local = 6.39704e-09, global = -3.19623e-19, cumulative = -9.98774e-19
ExecutionTime = 0.038596 s  ClockTime = 0 s

Time = 0.1s

Courant Number mean: 0.22117 max: 0.8517
smoothSolver:  Solving for T, Initial residual = 0.000207096, Final residual = 9.01105e-06, No Iterations 22
smoothSolver:  Solving for Ux, Initial residual = 0.000274837, Final residual = 6.41057e-06, No Iterations 7
smoothSolver:  Solving for Uy, Initial residual = 0.000628233, Final residual = 8.37081e-06, No Iterations 8
DICPCG:  Solving for p, Initial residual = 0.000622514, Final residual = 2.59209e-05, No Iterations 18
time step continuity errors : sum local = 2.10542e-07, global = 8.65562e-19, cumulative = -1.33213e-19
DICPCG:  Solving for p, Initial residual = 0.00047227, Final residual = 7.70018e-07, No Iterations 25
time step continuity errors : sum local = 6.30088e-09, global = 1.2636e-18, cumulative = 1.13039e-18
ExecutionTime = 0.04214 s  ClockTime = 0 s

Time = 0.105s

Courant Number mean: 0.221374 max: 0.851792
smoothSolver:  Solving for T, Initial residual = 0.000141309, Final residual = 9.3344e-06, No Iterations 19
smoothSolver:  Solving for Ux, Initial residual = 0.000223224, Final residual = 8.96439e-06, No Iterations 6
smoothSolver:  Solving for Uy, Initial residual = 0.000482616, Final residual = 6.47969e-06, No Iterations 8
DICPCG:  Solving for p, Initial residual = 0.000468714, Final residual = 1.96687e-05, No Iterations 8
time step continuity errors : sum local = 2.12005e-07, global = -5.63889e-19, cumulative = 5.665e-19
DICPCG:  Solving for p, Initial residual = 0.000355962, Final residual = 8.43516e-07, No Iterations 21
time step continuity errors : sum local = 6.89876e-09, global = -6.19889e-19, cumulative = -5.33896e-20
ExecutionTime = 0.043633 s  ClockTime = 0 s

Time = 0.11s

Courant Number mean: 0.221535 max: 0.851865
smoothSolver:  Solving for T, Initial residual = 9.7409e-05, Final residual = 9.78007e-06, No Iterations 16
smoothSolver:  Solving for Ux, Initial residual = 0.000174176, Final residual = 6.99002e-06, No Iterations 6
smoothSolver:  Solving for Uy, Initial residual = 0.00039542, Final residual = 9.0771e-06, No Iterations 7
DICPCG:  Solving for p, Initial residual = 0.000373519, Final residual = 1.56742e-05, No Iterations 18
time step continuity errors : sum local = 1.27595e-07, global = 1.36022e-18, cumulative = 1.30683e-18
DICPCG:  Solving for p, Initial residual = 0.000283074, Final residual = 5.05673e-07, No Iterations 25
time step continuity errors : sum local = 4.13929e-09, global = -3.51221e-19, cumulative = 9.55605e-19
ExecutionTime = 0.044902 s  ClockTime = 0 s

Time = 0.115s

Courant Number mean: 0.221663 max: 0.851921
smoothSolver:  Solving for T, Initial residual = 6.8215e-05, Final residual = 9.07956e-06, No Iterations 14
smoothSolver:  Solving for Ux, Initial residual = 0.000141731, Final residual = 9.76023e-06, No Iterations 5
smoothSolver:  Solving for Uy, Initial residual = 0.000306142, Final residual = 7.06837e-06, No Iterations 7
DICPCG:  Solving for p, Initial residual = 0.000292701, Final residual = 1.2229e-05, No Iterations 8
time step continuity errors : sum local = 1.20832e-07, global = -5.78861e-19, cumulative = 3.76744e-19
DICPCG:  Solving for p, Initial residual = 0.000220614, Final residual = 9.27971e-07, No Iterations 24
time step continuity errors : sum local = 7.61253e-09, global = -6.44374e-20, cumulative = 3.12307e-19
ExecutionTime = 0.046165 s  ClockTime = 0 s

Time = 0.12s

Courant Number mean: 0.221763 max: 0.851966
smoothSolver:  Solving for T, Initial residual = 4.85106e-05, Final residual = 9.84233e-06, No Iterations 11
smoothSolver:  Solving for Ux, Initial residual = 0.000111369, Final residual = 7.67901e-06, No Iterations 5
smoothSolver:  Solving for Uy, Initial residual = 0.000250495, Final residual = 9.89588e-06, No Iterations 6
DICPCG:  Solving for p, Initial residual = 0.000222773, Final residual = 1.06607e-05, No Iterations 8
time step continuity errors : sum local = 1.28485e-07, global = 8.43311e-19, cumulative = 1.15562e-18
DICPCG:  Solving for p, Initial residual = 0.00016837, Final residual = 6.25607e-07, No Iterations 23
time step continuity errors : sum local = 5.19002e-09, global = -1.4335e-19, cumulative = 1.01227e-18
ExecutionTime = 0.047229 s  ClockTime = 0 s

Time = 0.125s

Courant Number mean: 0.221842 max: 0.852
smoothSolver:  Solving for T, Initial residual = 3.55913e-05, Final residual = 9.60936e-06, No Iterations 9
smoothSolver:  Solving for Ux, Initial residual = 9.31336e-05, Final residual = 6.36061e-06, No Iterations 5
smoothSolver:  Solving for Uy, Initial residual = 0.000193913, Final residual = 7.65969e-06, No Iterations 6
DICPCG:  Solving for p, Initial residual = 0.000200105, Final residual = 6.78568e-06, No Iterations 19
time step continuity errors : sum local = 5.62143e-08, global = -4.23682e-19, cumulative = 5.88585e-19
DICPCG:  Solving for p, Initial residual = 0.00015392, Final residual = 7.56185e-07, No Iterations 23
time step continuity errors : sum local = 6.21138e-09, global = 2.6081e-19, cumulative = 8.49395e-19
ExecutionTime = 0.04865 s  ClockTime = 0 s

Time = 0.13s

Courant Number mean: 0.221906 max: 0.852028
smoothSolver:  Solving for T, Initial residual = 2.69135e-05, Final residual = 9.67699e-06, No Iterations 7
smoothSolver:  Solving for Ux, Initial residual = 7.28697e-05, Final residual = 8.57634e-06, No Iterations 4
smoothSolver:  Solving for Uy, Initial residual = 0.000156785, Final residual = 6.2286e-06, No Iterations 6
DICPCG:  Solving for p, Initial residual = 0.00014551, Final residual = 6.81011e-06, No Iterations 10
time step continuity errors : sum local = 6.8231e-08, global = -2.77106e-19, cumulative = 5.7229e-19
DICPCG:  Solving for p, Initial residual = 0.000112016, Final residual = 5.18392e-07, No Iterations 23
time step continuity errors : sum local = 4.27618e-09, global = -9.04439e-19, cumulative = -3.3215e-19
ExecutionTime = 0.049884 s  ClockTime = 0 s

Time = 0.135s

Courant Number mean: 0.221955 max: 0.852049
smoothSolver:  Solving for T, Initial residual = 2.11489e-05, Final residual = 8.81646e-06, No Iterations 6
smoothSolver:  Solving for Ux, Initial residual = 5.93808e-05, Final residual = 6.98262e-06, No Iterations 4
smoothSolver:  Solving for Uy, Initial residual = 0.00012499, Final residual = 8.50843e-06, No Iterations 5
DICPCG:  Solving for p, Initial residual = 0.000111662, Final residual = 4.0518e-06, No Iterations 18
time step continuity errors : sum local = 3.29809e-08, global = -6.49336e-20, cumulative = -3.97083e-19
DICPCG:  Solving for p, Initial residual = 8.38173e-05, Final residual = 8.9809e-07, No Iterations 22
time step continuity errors : sum local = 7.32952e-09, global = 2.60231e-19, cumulative = -1.36852e-19
ExecutionTime = 0.050904 s  ClockTime = 0 s

Time = 0.14s

Courant Number mean: 0.221995 max: 0.852066
smoothSolver:  Solving for T, Initial residual = 1.70465e-05, Final residual = 9.46244e-06, No Iterations 4
smoothSolver:  Solving for Ux, Initial residual = 4.72564e-05, Final residual = 9.54195e-06, No Iterations 3
smoothSolver:  Solving for Uy, Initial residual = 0.000101859, Final residual = 6.94037e-06, No Iterations 5
DICPCG:  Solving for p, Initial residual = 9.9107e-05, Final residual = 4.81093e-06, No Iterations 8
time step continuity errors : sum local = 5.12653e-08, global = 1.84296e-19, cumulative = 4.74437e-20
DICPCG:  Solving for p, Initial residual = 8.09089e-05, Final residual = 9.14558e-07, No Iterations 12
time step continuity errors : sum local = 1.07471e-08, global = -7.64315e-20, cumulative = -2.89878e-20
ExecutionTime = 0.052021 s  ClockTime = 0 s

Time = 0.145s

Courant Number mean: 0.222026 max: 0.852079
smoothSolver:  Solving for T, Initial residual = 1.45225e-05, Final residual = 9.33892e-06, No Iterations 3
smoothSolver:  Solving for Ux, Initial residual = 3.92048e-05, Final residual = 7.90958e-06, No Iterations 3
smoothSolver:  Solving for Uy, Initial residual = 8.16922e-05, Final residual = 9.51671e-06, No Iterations 4
DICPCG:  Solving for p, Initial residual = 6.71039e-05, Final residual = 2.71288e-06, No Iterations 8
time step continuity errors : sum local = 2.62356e-08, global = 2.55103e-19, cumulative = 2.26115e-19
DICPCG:  Solving for p, Initial residual = 5.09398e-05, Final residual = 9.48819e-07, No Iterations 19
time step continuity errors : sum local = 8.15198e-09, global = -3.7157e-19, cumulative = -1.45455e-19
ExecutionTime = 0.0529 s  ClockTime = 0 s

Time = 0.15s

Courant Number mean: 0.22205 max: 0.852089
smoothSolver:  Solving for T, Initial residual = 1.27846e-05, Final residual = 9.51716e-06, No Iterations 2
smoothSolver:  Solving for Ux, Initial residual = 3.1241e-05, Final residual = 6.32935e-06, No Iterations 3
smoothSolver:  Solving for Uy, Initial residual = 6.82207e-05, Final residual = 7.93491e-06, No Iterations 4
DICPCG:  Solving for p, Initial residual = 5.76348e-05, Final residual = 2.52714e-06, No Iterations 18
time step continuity errors : sum local = 2.07462e-08, global = -5.11942e-19, cumulative = -6.57397e-19
DICPCG:  Solving for p, Initial residual = 4.44457e-05, Final residual = 7.46158e-07, No Iterations 19
time step continuity errors : sum local = 6.23703e-09, global = -6.73242e-19, cumulative = -1.33064e-18
ExecutionTime = 0.05381 s  ClockTime = 0 s

Time = 0.155s

Courant Number mean: 0.22207 max: 0.852098
smoothSolver:  Solving for T, Initial residual = 1.16909e-05, Final residual = 8.73706e-06, No Iterations 2
smoothSolver:  Solving for Ux, Initial residual = 2.58341e-05, Final residual = 8.93836e-06, No Iterations 2
smoothSolver:  Solving for Uy, Initial residual = 5.48718e-05, Final residual = 6.39138e-06, No Iterations 4
DICPCG:  Solving for p, Initial residual = 6.79729e-05, Final residual = 2.6127e-06, No Iterations 10
time step continuity errors : sum local = 2.81266e-08, global = 2.19616e-19, cumulative = -1.11102e-18
DICPCG:  Solving for p, Initial residual = 5.89241e-05, Final residual = 7.14659e-07, No Iterations 11
time step continuity errors : sum local = 7.30921e-09, global = -2.67758e-19, cumulative = -1.37878e-18
ExecutionTime = 0.054852 s  ClockTime = 0 s

Time = 0.16s

Courant Number mean: 0.222086 max: 0.852105
smoothSolver:  Solving for T, Initial residual = 1.07271e-05, Final residual = 9.25486e-06, No Iterations 1
smoothSolver:  Solving for Ux, Initial residual = 2.21169e-05, Final residual = 7.64178e-06, No Iterations 2
smoothSolver:  Solving for Uy, Initial residual = 4.42663e-05, Final residual = 8.78157e-06, No Iterations 3
DICPCG:  Solving for p, Initial residual = 3.69909e-05, Final residual = 1.65101e-06, No Iterations 10
time step continuity errors : sum local = 1.6521e-08, global = -1.00842e-18, cumulative = -2.3872e-18
DICPCG:  Solving for p, Initial residual = 2.92669e-05, Final residual = 7.26101e-07, No Iterations 11
time step continuity errors : sum local = 8.7608e-09, global = 5.53797e-19, cumulative = -1.8334e-18
ExecutionTime = 0.055549 s  ClockTime = 0 s

Time = 0.165s

Courant Number mean: 0.222098 max: 0.852109
smoothSolver:  Solving for T, Initial residual = 1.0233e-05, Final residual = 8.8358e-06, No Iterations 1
smoothSolver:  Solving for Ux, Initial residual = 1.80669e-05, Final residual = 6.25739e-06, No Iterations 2
smoothSolver:  Solving for Uy, Initial residual = 3.75716e-05, Final residual = 7.47543e-06, No Iterations 3
DICPCG:  Solving for p, Initial residual = 3.27485e-05, Final residual = 1.39194e-06, No Iterations 8
time step continuity errors : sum local = 1.20071e-08, global = -5.73236e-20, cumulative = -1.89072e-18
DICPCG:  Solving for p, Initial residual = 2.67241e-05, Final residual = 9.44082e-07, No Iterations 10
time step continuity errors : sum local = 9.81874e-09, global = -8.31482e-19, cumulative = -2.72221e-18
ExecutionTime = 0.056225 s  ClockTime = 0 s

Time = 0.17s

Courant Number mean: 0.222108 max: 0.852114
smoothSolver:  Solving for T, Initial residual = 9.77074e-06, Final residual = 9.77074e-06, No Iterations 0
smoothSolver:  Solving for Ux, Initial residual = 1.52017e-05, Final residual = 8.95782e-06, No Iterations 1
smoothSolver:  Solving for Uy, Initial residual = 3.11395e-05, Final residual = 6.19795e-06, No Iterations 3
DICPCG:  Solving for p, Initial residual = 5.66088e-05, Final residual = 2.62641e-06, No Iterations 10
time step continuity errors : sum local = 2.87845e-08, global = 1.15557e-19, cumulative = -2.60665e-18
DICPCG:  Solving for p, Initial residual = 5.37241e-05, Final residual = 7.7202e-07, No Iterations 10
time step continuity errors : sum local = 6.90341e-09, global = -1.02719e-18, cumulative = -3.63384e-18
ExecutionTime = 0.056904 s  ClockTime = 0 s

Time = 0.175s

Courant Number mean: 0.222116 max: 0.852117
smoothSolver:  Solving for T, Initial residual = 9.78672e-06, Final residual = 9.78672e-06, No Iterations 0
smoothSolver:  Solving for Ux, Initial residual = 1.36867e-05, Final residual = 8.0581e-06, No Iterations 1
smoothSolver:  Solving for Uy, Initial residual = 2.54708e-05, Final residual = 8.55061e-06, No Iterations 2
DICPCG:  Solving for p, Initial residual = 2.87818e-05, Final residual = 1.10415e-06, No Iterations 10
time step continuity errors : sum local = 1.2352e-08, global = 1.11339e-18, cumulative = -2.52046e-18
DICPCG:  Solving for p, Initial residual = 2.5235e-05, Final residual = 9.33348e-07, No Iterations 18
time step continuity errors : sum local = 7.86469e-09, global = -4.85141e-19, cumulative = -3.0056e-18
ExecutionTime = 0.057593 s  ClockTime = 0 s

Time = 0.18s

Courant Number mean: 0.222122 max: 0.852119
smoothSolver:  Solving for T, Initial residual = 9.78146e-06, Final residual = 9.78146e-06, No Iterations 0
smoothSolver:  Solving for Ux, Initial residual = 1.12437e-05, Final residual = 6.636e-06, No Iterations 1
smoothSolver:  Solving for Uy, Initial residual = 2.31832e-05, Final residual = 7.8088e-06, No Iterations 2
DICPCG:  Solving for p, Initial residual = 2.73965e-05, Final residual = 7.73662e-07, No Iterations 18
time step continuity errors : sum local = 6.46081e-09, global = -4.78441e-19, cumulative = -3.48404e-18
DICPCG:  Solving for p, Initial residual = 2.46778e-05, Final residual = 5.39094e-07, No Iterations 18
time step continuity errors : sum local = 4.53631e-09, global = -7.797e-19, cumulative = -4.26374e-18
ExecutionTime = 0.058355 s  ClockTime = 1 s

Time = 0.185s

Courant Number mean: 0.222127 max: 0.852121
smoothSolver:  Solving for T, Initial residual = 9.78193e-06, Final residual = 9.78193e-06, No Iterations 0
smoothSolver:  Solving for Ux, Initial residual = 9.89495e-06, Final residual = 9.89495e-06, No Iterations 0
smoothSolver:  Solving for Uy, Initial residual = 1.94545e-05, Final residual = 6.58115e-06, No Iterations 2
DICPCG:  Solving for p, Initial residual = 6.19125e-05, Final residual = 2.26411e-06, No Iterations 16
time step continuity errors : sum local = 1.86199e-08, global = -3.62553e-19, cumulative = -4.62629e-18
DICPCG:  Solving for p, Initial residual = 6.01897e-05, Final residual = 3.9291e-07, No Iterations 18
time step continuity errors : sum local = 3.23979e-09, global = 2.26482e-19, cumulative = -4.39981e-18
ExecutionTime = 0.059516 s  ClockTime = 1 s

Time = 0.19s

Courant Number mean: 0.22213 max: 0.852124
smoothSolver:  Solving for T, Initial residual = 9.78295e-06, Final residual = 9.78295e-06, No Iterations 0
smoothSolver:  Solving for Ux, Initial residual = 9.36241e-06, Final residual = 9.36241e-06, No Iterations 0
smoothSolver:  Solving for Uy, Initial residual = 1.68394e-05, Final residual = 9.601e-06, No Iterations 1
DICPCG:  Solving for p, Initial residual = 3.29531e-05, Final residual = 7.81797e-07, No Iterations 16
time step continuity errors : sum local = 6.45501e-09, global = 1.0559e-18, cumulative = -3.34391e-18
DICPCG:  Solving for p, Initial residual = 3.34649e-05, Final residual = 9.14024e-07, No Iterations 16
time step continuity errors : sum local = 7.55105e-09, global = 1.06235e-18, cumulative = -2.28157e-18
ExecutionTime = 0.060336 s  ClockTime = 1 s

Time = 0.195s

Courant Number mean: 0.222133 max: 0.852125
smoothSolver:  Solving for T, Initial residual = 9.78234e-06, Final residual = 9.78234e-06, No Iterations 0
smoothSolver:  Solving for Ux, Initial residual = 8.53295e-06, Final residual = 8.53295e-06, No Iterations 0
smoothSolver:  Solving for Uy, Initial residual = 1.54405e-05, Final residual = 8.83697e-06, No Iterations 1
DICPCG:  Solving for p, Initial residual = 3.09908e-05, Final residual = 1.15333e-06, No Iterations 16
time step continuity errors : sum local = 9.81079e-09, global = 5.50323e-19, cumulative = -1.73124e-18
DICPCG:  Solving for p, Initial residual = 3.10129e-05, Final residual = 9.56683e-07, No Iterations 19
time step continuity errors : sum local = 7.9432e-09, global = -2.61803e-19, cumulative = -1.99305e-18
ExecutionTime = 0.061219 s  ClockTime = 1 s

Time = 0.2s

Courant Number mean: 0.222135 max: 0.852125
smoothSolver:  Solving for T, Initial residual = 9.78221e-06, Final residual = 9.78221e-06, No Iterations 0
smoothSolver:  Solving for Ux, Initial residual = 7.88142e-06, Final residual = 7.88142e-06, No Iterations 0
smoothSolver:  Solving for Uy, Initial residual = 1.40604e-05, Final residual = 8.0451e-06, No Iterations 1
DICPCG:  Solving for p, Initial residual = 2.83853e-05, Final residual = 1.19169e-06, No Iterations 16
time step continuity errors : sum local = 1.00457e-08, global = 1.87356e-19, cumulative = -1.80569e-18
DICPCG:  Solving for p, Initial residual = 2.84086e-05, Final residual = 9.00678e-07, No Iterations 18
time step continuity errors : sum local = 7.53128e-09, global = -5.95487e-19, cumulative = -2.40118e-18
ExecutionTime = 0.064178 s  ClockTime = 1 s

Time = 0.205s

Courant Number mean: 0.222137 max: 0.852126
smoothSolver:  Solving for T, Initial residual = 9.78194e-06, Final residual = 9.78194e-06, No Iterations 0
smoothSolver:  Solving for Ux, Initial residual = 7.26756e-06, Final residual = 7.26756e-06, No Iterations 0
smoothSolver:  Solving for Uy, Initial residual = 1.28129e-05, Final residual = 7.32867e-06, No Iterations 1
DICPCG:  Solving for p, Initial residual = 2.60579e-05, Final residual = 1.01914e-06, No Iterations 18
time step continuity errors : sum local = 8.57158e-09, global = 1.09767e-19, cumulative = -2.29141e-18
DICPCG:  Solving for p, Initial residual = 2.61736e-05, Final residual = 9.77543e-07, No Iterations 18
time step continuity errors : sum local = 8.06148e-09, global = 5.17236e-19, cumulative = -1.77417e-18
ExecutionTime = 0.065072 s  ClockTime = 1 s

Time = 0.21s

Courant Number mean: 0.222139 max: 0.852127
smoothSolver:  Solving for T, Initial residual = 9.78251e-06, Final residual = 9.78251e-06, No Iterations 0
smoothSolver:  Solving for Ux, Initial residual = 6.69543e-06, Final residual = 6.69543e-06, No Iterations 0
smoothSolver:  Solving for Uy, Initial residual = 1.17144e-05, Final residual = 6.70097e-06, No Iterations 1
DICPCG:  Solving for p, Initial residual = 2.38445e-05, Final residual = 7.86316e-07, No Iterations 16
time step continuity errors : sum local = 6.66322e-09, global = 1.13737e-19, cumulative = -1.66044e-18
DICPCG:  Solving for p, Initial residual = 2.38341e-05, Final residual = 8.3928e-07, No Iterations 18
time step continuity errors : sum local = 6.91546e-09, global = 7.9856e-19, cumulative = -8.61876e-19
ExecutionTime = 0.066438 s  ClockTime = 1 s

Time = 0.215s

Courant Number mean: 0.222141 max: 0.852128
smoothSolver:  Solving for T, Initial residual = 9.78262e-06, Final residual = 9.78262e-06, No Iterations 0
smoothSolver:  Solving for Ux, Initial residual = 6.16108e-06, Final residual = 6.16108e-06, No Iterations 0
smoothSolver:  Solving for Uy, Initial residual = 1.0692e-05, Final residual = 6.11353e-06, No Iterations 1
DICPCG:  Solving for p, Initial residual = 2.19253e-05, Final residual = 7.06329e-07, No Iterations 18
time step continuity errors : sum local = 5.94752e-09, global = -1.05854e-18, cumulative = -1.92042e-18
DICPCG:  Solving for p, Initial residual = 2.20029e-05, Final residual = 6.95222e-07, No Iterations 18
time step continuity errors : sum local = 5.79317e-09, global = 3.54199e-19, cumulative = -1.56622e-18
ExecutionTime = 0.067323 s  ClockTime = 1 s

Time = 0.22s

Courant Number mean: 0.222142 max: 0.852128
smoothSolver:  Solving for T, Initial residual = 9.78226e-06, Final residual = 9.78226e-06, No Iterations 0
smoothSolver:  Solving for Ux, Initial residual = 5.67292e-06, Final residual = 5.67292e-06, No Iterations 0
smoothSolver:  Solving for Uy, Initial residual = 9.78327e-06, Final residual = 9.78327e-06, No Iterations 0
DICPCG:  Solving for p, Initial residual = 1.47974e-06, Final residual = 7.16857e-07, No Iterations 4
time step continuity errors : sum local = 6.05186e-09, global = -3.37738e-19, cumulative = -1.90396e-18
DICPCG:  Solving for p, Initial residual = 1.08632e-06, Final residual = 5.53269e-07, No Iterations 2
time step continuity errors : sum local = 4.88686e-09, global = -1.66098e-19, cumulative = -2.07006e-18
ExecutionTime = 0.067928 s  ClockTime = 1 s

Time = 0.225s

Courant Number mean: 0.222143 max: 0.852128
smoothSolver:  Solving for T, Initial residual = 9.78076e-06, Final residual = 9.78076e-06, No Iterations 0
smoothSolver:  Solving for Ux, Initial residual = 5.17331e-06, Final residual = 5.17331e-06, No Iterations 0
smoothSolver:  Solving for Uy, Initial residual = 9.50297e-06, Final residual = 9.50297e-06, No Iterations 0
DICPCG:  Solving for p, Initial residual = 1.10485e-06, Final residual = 6.0181e-07, No Iterations 1
time step continuity errors : sum local = 5.26554e-09, global = -1.38718e-19, cumulative = -2.20877e-18
DICPCG:  Solving for p, Initial residual = 8.19148e-07, Final residual = 8.19148e-07, No Iterations 0
time step continuity errors : sum local = 7.0674e-09, global = -7.18075e-19, cumulative = -2.92685e-18
ExecutionTime = 0.068521 s  ClockTime = 1 s

Time = 0.23s

Courant Number mean: 0.222144 max: 0.852128
smoothSolver:  Solving for T, Initial residual = 9.7807e-06, Final residual = 9.7807e-06, No Iterations 0
smoothSolver:  Solving for Ux, Initial residual = 4.96872e-06, Final residual = 4.96872e-06, No Iterations 0
smoothSolver:  Solving for Uy, Initial residual = 9.02653e-06, Final residual = 9.02653e-06, No Iterations 0
DICPCG:  Solving for p, Initial residual = 1.57057e-06, Final residual = 8.39339e-07, No Iterations 3
time step continuity errors : sum local = 7.63247e-09, global = -5.05904e-19, cumulative = -3.43275e-18
DICPCG:  Solving for p, Initial residual = 1.4041e-06, Final residual = 7.08971e-07, No Iterations 1
time step continuity errors : sum local = 6.61895e-09, global = 2.45011e-19, cumulative = -3.18774e-18
ExecutionTime = 0.069134 s  ClockTime = 1 s

Time = 0.235s

Courant Number mean: 0.222145 max: 0.852128
smoothSolver:  Solving for T, Initial residual = 9.77786e-06, Final residual = 9.77786e-06, No Iterations 0
smoothSolver:  Solving for Ux, Initial residual = 4.46359e-06, Final residual = 4.46359e-06, No Iterations 0
smoothSolver:  Solving for Uy, Initial residual = 8.92914e-06, Final residual = 8.92914e-06, No Iterations 0
DICPCG:  Solving for p, Initial residual = 8.66218e-07, Final residual = 8.66218e-07, No Iterations 0
time step continuity errors : sum local = 8.00309e-09, global = -2.7297e-21, cumulative = -3.19047e-18
DICPCG:  Solving for p, Initial residual = 1.09531e-06, Final residual = 6.1123e-07, No Iterations 1
time step continuity errors : sum local = 5.94541e-09, global = -6.93177e-20, cumulative = -3.25979e-18
ExecutionTime = 0.069716 s  ClockTime = 1 s

Time = 0.24s

Courant Number mean: 0.222145 max: 0.852129
smoothSolver:  Solving for T, Initial residual = 9.77736e-06, Final residual = 9.77736e-06, No Iterations 0
smoothSolver:  Solving for Ux, Initial residual = 4.28217e-06, Final residual = 4.28217e-06, No Iterations 0
smoothSolver:  Solving for Uy, Initial residual = 8.46547e-06, Final residual = 8.46547e-06, No Iterations 0
DICPCG:  Solving for p, Initial residual = 9.44337e-07, Final residual = 9.44337e-07, No Iterations 0
time step continuity errors : sum local = 8.69096e-09, global = 4.48497e-19, cumulative = -2.81129e-18
DICPCG:  Solving for p, Initial residual = 1.5215e-06, Final residual = 4.47334e-07, No Iterations 2
time step continuity errors : sum local = 4.69413e-09, global = 5.93668e-19, cumulative = -2.21763e-18
ExecutionTime = 0.070577 s  ClockTime = 1 s

Time = 0.245s

Courant Number mean: 0.222146 max: 0.852129
smoothSolver:  Solving for T, Initial residual = 9.77685e-06, Final residual = 9.77685e-06, No Iterations 0
smoothSolver:  Solving for Ux, Initial residual = 4.00214e-06, Final residual = 4.00214e-06, No Iterations 0
smoothSolver:  Solving for Uy, Initial residual = 7.91469e-06, Final residual = 7.91469e-06, No Iterations 0
DICPCG:  Solving for p, Initial residual = 7.8963e-07, Final residual = 7.8963e-07, No Iterations 0
time step continuity errors : sum local = 7.50476e-09, global = 7.65721e-19, cumulative = -1.4519e-18
DICPCG:  Solving for p, Initial residual = 1.1885e-06, Final residual = 5.75588e-07, No Iterations 2
time step continuity errors : sum local = 5.85734e-09, global = -5.22778e-19, cumulative = -1.97468e-18
ExecutionTime = 0.071146 s  ClockTime = 1 s

Time = 0.25s

Courant Number mean: 0.222147 max: 0.852129
smoothSolver:  Solving for T, Initial residual = 9.77619e-06, Final residual = 9.77619e-06, No Iterations 0
smoothSolver:  Solving for Ux, Initial residual = 3.84103e-06, Final residual = 3.84103e-06, No Iterations 0
smoothSolver:  Solving for Uy, Initial residual = 7.64249e-06, Final residual = 7.64249e-06, No Iterations 0
DICPCG:  Solving for p, Initial residual = 1.22027e-06, Final residual = 6.92956e-07, No Iterations 1
time step continuity errors : sum local = 6.8712e-09, global = -3.84391e-19, cumulative = -2.35907e-18
DICPCG:  Solving for p, Initial residual = 8.83038e-07, Final residual = 8.83038e-07, No Iterations 0
time step continuity errors : sum local = 8.45642e-09, global = -1.01272e-18, cumulative = -3.37179e-18
ExecutionTime = 0.071701 s  ClockTime = 1 s

Time = 0.255s

Courant Number mean: 0.222147 max: 0.852129
smoothSolver:  Solving for T, Initial residual = 9.77576e-06, Final residual = 9.77576e-06, No Iterations 0
smoothSolver:  Solving for Ux, Initial residual = 3.60776e-06, Final residual = 3.60776e-06, No Iterations 0
smoothSolver:  Solving for Uy, Initial residual = 7.2577e-06, Final residual = 7.2577e-06, No Iterations 0
DICPCG:  Solving for p, Initial residual = 1.27565e-06, Final residual = 9.53017e-07, No Iterations 1
time step continuity errors : sum local = 9.07088e-09, global = -3.86872e-19, cumulative = -3.75866e-18
DICPCG:  Solving for p, Initial residual = 1.35414e-06, Final residual = 4.56896e-07, No Iterations 1
time step continuity errors : sum local = 5.03637e-09, global = 3.19126e-19, cumulative = -3.43954e-18
ExecutionTime = 0.072252 s  ClockTime = 1 s

Time = 0.26s

Courant Number mean: 0.222148 max: 0.85213
smoothSolver:  Solving for T, Initial residual = 9.77533e-06, Final residual = 9.77533e-06, No Iterations 0
smoothSolver:  Solving for Ux, Initial residual = 3.36846e-06, Final residual = 3.36846e-06, No Iterations 0
smoothSolver:  Solving for Uy, Initial residual = 6.86891e-06, Final residual = 6.86891e-06, No Iterations 0
DICPCG:  Solving for p, Initial residual = 7.37e-07, Final residual = 7.37e-07, No Iterations 0
time step continuity errors : sum local = 7.33244e-09, global = 6.61248e-19, cumulative = -2.77829e-18
DICPCG:  Solving for p, Initial residual = 1.15609e-06, Final residual = 9.54367e-07, No Iterations 1
time step continuity errors : sum local = 9.13139e-09, global = 1.63947e-18, cumulative = -1.13882e-18
ExecutionTime = 0.073003 s  ClockTime = 1 s

Time = 0.265s

Courant Number mean: 0.222148 max: 0.85213
smoothSolver:  Solving for T, Initial residual = 9.77514e-06, Final residual = 9.77514e-06, No Iterations 0
smoothSolver:  Solving for Ux, Initial residual = 3.17465e-06, Final residual = 3.17465e-06, No Iterations 0
smoothSolver:  Solving for Uy, Initial residual = 6.51451e-06, Final residual = 6.51451e-06, No Iterations 0
DICPCG:  Solving for p, Initial residual = 1.33184e-06, Final residual = 8.63509e-07, No Iterations 1
time step continuity errors : sum local = 8.43672e-09, global = -4.83652e-19, cumulative = -1.62247e-18
DICPCG:  Solving for p, Initial residual = 1.33196e-06, Final residual = 7.81878e-07, No Iterations 1
time step continuity errors : sum local = 7.79903e-09, global = -5.81508e-19, cumulative = -2.20398e-18
ExecutionTime = 0.073525 s  ClockTime = 1 s

Time = 0.27s

Courant Number mean: 0.222149 max: 0.85213
smoothSolver:  Solving for T, Initial residual = 9.77474e-06, Final residual = 9.77474e-06, No Iterations 0
smoothSolver:  Solving for Ux, Initial residual = 2.99511e-06, Final residual = 2.99511e-06, No Iterations 0
smoothSolver:  Solving for Uy, Initial residual = 6.22694e-06, Final residual = 6.22694e-06, No Iterations 0
DICPCG:  Solving for p, Initial residual = 9.90982e-07, Final residual = 9.90982e-07, No Iterations 0
time step continuity errors : sum local = 9.52433e-09, global = -3.07298e-19, cumulative = -2.51127e-18
DICPCG:  Solving for p, Initial residual = 1.2285e-06, Final residual = 5.469e-07, No Iterations 2
time step continuity errors : sum local = 5.99328e-09, global = -1.03828e-18, cumulative = -3.54955e-18
ExecutionTime = 0.074029 s  ClockTime = 1 s

Time = 0.275s

Courant Number mean: 0.22215 max: 0.85213
smoothSolver:  Solving for T, Initial residual = 9.77406e-06, Final residual = 9.77406e-06, No Iterations 0
smoothSolver:  Solving for Ux, Initial residual = 2.77014e-06, Final residual = 2.77014e-06, No Iterations 0
smoothSolver:  Solving for Uy, Initial residual = 5.90597e-06, Final residual = 5.90597e-06, No Iterations 0
DICPCG:  Solving for p, Initial residual = 8.9524e-07, Final residual = 8.9524e-07, No Iterations 0
time step continuity errors : sum local = 8.85402e-09, global = 5.62979e-19, cumulative = -2.98657e-18
DICPCG:  Solving for p, Initial residual = 1.22659e-06, Final residual = 6.49587e-07, No Iterations 1
time step continuity errors : sum local = 6.83759e-09, global = 9.41249e-19, cumulative = -2.04532e-18
ExecutionTime = 0.074844 s  ClockTime = 1 s

Time = 0.28s

Courant Number mean: 0.22215 max: 0.85213
smoothSolver:  Solving for T, Initial residual = 9.77396e-06, Final residual = 9.77396e-06, No Iterations 0
smoothSolver:  Solving for Ux, Initial residual = 2.66737e-06, Final residual = 2.66737e-06, No Iterations 0
smoothSolver:  Solving for Uy, Initial residual = 5.65507e-06, Final residual = 5.65507e-06, No Iterations 0
DICPCG:  Solving for p, Initial residual = 9.88958e-07, Final residual = 9.88958e-07, No Iterations 0
time step continuity errors : sum local = 9.61715e-09, global = 1.25728e-20, cumulative = -2.03275e-18
DICPCG:  Solving for p, Initial residual = 1.30711e-06, Final residual = 5.14819e-07, No Iterations 1
time step continuity errors : sum local = 5.74334e-09, global = 5.80267e-19, cumulative = -1.45248e-18
ExecutionTime = 0.075373 s  ClockTime = 1 s

Time = 0.285s

Courant Number mean: 0.222151 max: 0.852131
smoothSolver:  Solving for T, Initial residual = 9.77396e-06, Final residual = 9.77396e-06, No Iterations 0
smoothSolver:  Solving for Ux, Initial residual = 2.53243e-06, Final residual = 2.53243e-06, No Iterations 0
smoothSolver:  Solving for Uy, Initial residual = 5.36665e-06, Final residual = 5.36665e-06, No Iterations 0
DICPCG:  Solving for p, Initial residual = 1.12161e-06, Final residual = 5.99864e-07, No Iterations 1
time step continuity errors : sum local = 6.43581e-09, global = 5.88622e-19, cumulative = -8.63862e-19
DICPCG:  Solving for p, Initial residual = 8.38467e-07, Final residual = 8.38467e-07, No Iterations 0
time step continuity errors : sum local = 8.38772e-09, global = -6.56864e-19, cumulative = -1.52073e-18
ExecutionTime = 0.075885 s  ClockTime = 1 s

Time = 0.29s

Courant Number mean: 0.222151 max: 0.852131
smoothSolver:  Solving for T, Initial residual = 9.77402e-06, Final residual = 9.77402e-06, No Iterations 0
smoothSolver:  Solving for Ux, Initial residual = 2.40185e-06, Final residual = 2.40185e-06, No Iterations 0
smoothSolver:  Solving for Uy, Initial residual = 5.07181e-06, Final residual = 5.07181e-06, No Iterations 0
DICPCG:  Solving for p, Initial residual = 1.26107e-06, Final residual = 9.63255e-07, No Iterations 1
time step continuity errors : sum local = 9.41108e-09, global = 1.34963e-18, cumulative = -1.71098e-19
DICPCG:  Solving for p, Initial residual = 1.461e-06, Final residual = 5.16596e-07, No Iterations 1
time step continuity errors : sum local = 5.76225e-09, global = -1.24466e-18, cumulative = -1.41576e-18
ExecutionTime = 0.076446 s  ClockTime = 1 s

Time = 0.295s

Courant Number mean: 0.222151 max: 0.852131
smoothSolver:  Solving for T, Initial residual = 9.77397e-06, Final residual = 9.77397e-06, No Iterations 0
smoothSolver:  Solving for Ux, Initial residual = 2.25696e-06, Final residual = 2.25696e-06, No Iterations 0
smoothSolver:  Solving for Uy, Initial residual = 4.74656e-06, Final residual = 4.74656e-06, No Iterations 0
DICPCG:  Solving for p, Initial residual = 7.71292e-07, Final residual = 7.71292e-07, No Iterations 0
time step continuity errors : sum local = 7.852e-09, global = -1.32192e-18, cumulative = -2.73767e-18
DICPCG:  Solving for p, Initial residual = 1.07658e-06, Final residual = 8.73451e-07, No Iterations 1
time step continuity errors : sum local = 8.71137e-09, global = -1.94718e-19, cumulative = -2.93239e-18
ExecutionTime = 0.077 s  ClockTime = 1 s

Time = 0.3s

Courant Number mean: 0.222152 max: 0.852131
smoothSolver:  Solving for T, Initial residual = 9.77383e-06, Final residual = 9.77383e-06, No Iterations 0
smoothSolver:  Solving for Ux, Initial residual = 2.12995e-06, Final residual = 2.12995e-06, No Iterations 0
smoothSolver:  Solving for Uy, Initial residual = 4.49406e-06, Final residual = 4.49406e-06, No Iterations 0
DICPCG:  Solving for p, Initial residual = 1.28815e-06, Final residual = 6.53802e-07, No Iterations 1
time step continuity errors : sum local = 6.93358e-09, global = -5.4809e-19, cumulative = -3.48048e-18
DICPCG:  Solving for p, Initial residual = 9.53668e-07, Final residual = 9.53668e-07, No Iterations 0
time step continuity errors : sum local = 9.39479e-09, global = -2.1821e-19, cumulative = -3.69869e-18
ExecutionTime = 0.080276 s  ClockTime = 1 s

Time = 0.305s

Courant Number mean: 0.222152 max: 0.852131
smoothSolver:  Solving for T, Initial residual = 9.77367e-06, Final residual = 9.77367e-06, No Iterations 0
smoothSolver:  Solving for Ux, Initial residual = 2.03809e-06, Final residual = 2.03809e-06, No Iterations 0
smoothSolver:  Solving for Uy, Initial residual = 4.29718e-06, Final residual = 4.29718e-06, No Iterations 0
DICPCG:  Solving for p, Initial residual = 1.39806e-06, Final residual = 7.91045e-07, No Iterations 1
time step continuity errors : sum local = 8.0858e-09, global = -4.96474e-19, cumulative = -4.19517e-18
DICPCG:  Solving for p, Initial residual = 1.09875e-06, Final residual = 6.66719e-07, No Iterations 1
time step continuity errors : sum local = 7.09233e-09, global = 1.12976e-18, cumulative = -3.0654e-18
ExecutionTime = 0.080908 s  ClockTime = 1 s

Time = 0.31s

Courant Number mean: 0.222153 max: 0.852131
smoothSolver:  Solving for T, Initial residual = 9.77339e-06, Final residual = 9.77339e-06, No Iterations 0
smoothSolver:  Solving for Ux, Initial residual = 1.90522e-06, Final residual = 1.90522e-06, No Iterations 0
smoothSolver:  Solving for Uy, Initial residual = 4.05393e-06, Final residual = 4.05393e-06, No Iterations 0
DICPCG:  Solving for p, Initial residual = 9.03771e-07, Final residual = 9.03771e-07, No Iterations 0
time step continuity errors : sum local = 9.03785e-09, global = -1.62789e-19, cumulative = -3.22819e-18
DICPCG:  Solving for p, Initial residual = 1.11741e-06, Final residual = 6.37604e-07, No Iterations 1
time step continuity errors : sum local = 6.8756e-09, global = 2.44101e-19, cumulative = -2.98409e-18
ExecutionTime = 0.08145 s  ClockTime = 1 s

Time = 0.315s

Courant Number mean: 0.222153 max: 0.852131
smoothSolver:  Solving for T, Initial residual = 9.77326e-06, Final residual = 9.77326e-06, No Iterations 0
smoothSolver:  Solving for Ux, Initial residual = 1.7917e-06, Final residual = 1.7917e-06, No Iterations 0
smoothSolver:  Solving for Uy, Initial residual = 3.84196e-06, Final residual = 3.84196e-06, No Iterations 0
DICPCG:  Solving for p, Initial residual = 1.0035e-06, Final residual = 5.30701e-07, No Iterations 1
time step continuity errors : sum local = 6.01921e-09, global = -9.91541e-19, cumulative = -3.97563e-18
DICPCG:  Solving for p, Initial residual = 7.32766e-07, Final residual = 7.32766e-07, No Iterations 0
time step continuity errors : sum local = 7.67714e-09, global = -3.42287e-19, cumulative = -4.31792e-18
ExecutionTime = 0.081955 s  ClockTime = 1 s

Time = 0.32s

Courant Number mean: 0.222153 max: 0.852132
smoothSolver:  Solving for T, Initial residual = 9.77314e-06, Final residual = 9.77314e-06, No Iterations 0
smoothSolver:  Solving for Ux, Initial residual = 1.70662e-06, Final residual = 1.70662e-06, No Iterations 0
smoothSolver:  Solving for Uy, Initial residual = 3.66551e-06, Final residual = 3.66551e-06, No Iterations 0
DICPCG:  Solving for p, Initial residual = 1.03292e-06, Final residual = 5.81294e-07, No Iterations 1
time step continuity errors : sum local = 6.44816e-09, global = 4.06477e-19, cumulative = -3.91144e-18
DICPCG:  Solving for p, Initial residual = 8.02542e-07, Final residual = 8.02542e-07, No Iterations 0
time step continuity errors : sum local = 8.26434e-09, global = -5.13348e-19, cumulative = -4.42479e-18
ExecutionTime = 0.082462 s  ClockTime = 1 s

Time = 0.325s

Courant Number mean: 0.222154 max: 0.852132
smoothSolver:  Solving for T, Initial residual = 9.77305e-06, Final residual = 9.77305e-06, No Iterations 0
smoothSolver:  Solving for Ux, Initial residual = 1.6064e-06, Final residual = 1.6064e-06, No Iterations 0
smoothSolver:  Solving for Uy, Initial residual = 3.46966e-06, Final residual = 3.46966e-06, No Iterations 0
DICPCG:  Solving for p, Initial residual = 1.08168e-06, Final residual = 6.39018e-07, No Iterations 1
time step continuity errors : sum local = 6.93523e-09, global = 1.37147e-18, cumulative = -3.05333e-18
DICPCG:  Solving for p, Initial residual = 9.81785e-07, Final residual = 9.81785e-07, No Iterations 0
time step continuity errors : sum local = 9.74738e-09, global = 8.09065e-19, cumulative = -2.24426e-18
ExecutionTime = 0.082953 s  ClockTime = 1 s

Time = 0.33s

Courant Number mean: 0.222154 max: 0.852132
smoothSolver:  Solving for T, Initial residual = 9.77298e-06, Final residual = 9.77298e-06, No Iterations 0
smoothSolver:  Solving for Ux, Initial residual = 1.52334e-06, Final residual = 1.52334e-06, No Iterations 0
smoothSolver:  Solving for Uy, Initial residual = 3.29171e-06, Final residual = 3.29171e-06, No Iterations 0
DICPCG:  Solving for p, Initial residual = 1.39874e-06, Final residual = 6.14811e-07, No Iterations 1
time step continuity errors : sum local = 6.74732e-09, global = -4.59747e-19, cumulative = -2.70401e-18
DICPCG:  Solving for p, Initial residual = 9.24005e-07, Final residual = 9.24005e-07, No Iterations 0
time step continuity errors : sum local = 9.28226e-09, global = 6.31966e-20, cumulative = -2.64081e-18
ExecutionTime = 0.08346 s  ClockTime = 1 s

Time = 0.335s

Courant Number mean: 0.222154 max: 0.852132
smoothSolver:  Solving for T, Initial residual = 9.77292e-06, Final residual = 9.77292e-06, No Iterations 0
smoothSolver:  Solving for Ux, Initial residual = 1.43519e-06, Final residual = 1.43519e-06, No Iterations 0
smoothSolver:  Solving for Uy, Initial residual = 3.11539e-06, Final residual = 3.11539e-06, No Iterations 0
DICPCG:  Solving for p, Initial residual = 1.31013e-06, Final residual = 6.72741e-07, No Iterations 1
time step continuity errors : sum local = 7.23304e-09, global = 8.7921e-19, cumulative = -1.7616e-18
DICPCG:  Solving for p, Initial residual = 1.03871e-06, Final residual = 5.6769e-07, No Iterations 1
time step continuity errors : sum local = 6.38103e-09, global = -2.34754e-19, cumulative = -1.99635e-18
ExecutionTime = 0.084008 s  ClockTime = 1 s

Time = 0.34s

Courant Number mean: 0.222154 max: 0.852132
smoothSolver:  Solving for T, Initial residual = 9.77282e-06, Final residual = 9.77282e-06, No Iterations 0
smoothSolver:  Solving for Ux, Initial residual = 1.34858e-06, Final residual = 1.34858e-06, No Iterations 0
smoothSolver:  Solving for Uy, Initial residual = 2.93212e-06, Final residual = 2.93212e-06, No Iterations 0
DICPCG:  Solving for p, Initial residual = 7.26052e-07, Final residual = 7.26052e-07, No Iterations 0
time step continuity errors : sum local = 7.67915e-09, global = 3.91008e-19, cumulative = -1.60535e-18
DICPCG:  Solving for p, Initial residual = 8.58724e-07, Final residual = 8.58724e-07, No Iterations 0
time step continuity errors : sum local = 8.76669e-09, global = 2.58908e-20, cumulative = -1.57946e-18
ExecutionTime = 0.084536 s  ClockTime = 1 s

Time = 0.345s

Courant Number mean: 0.222155 max: 0.852132
smoothSolver:  Solving for T, Initial residual = 9.77279e-06, Final residual = 9.77279e-06, No Iterations 0
smoothSolver:  Solving for Ux, Initial residual = 1.2905e-06, Final residual = 1.2905e-06, No Iterations 0
smoothSolver:  Solving for Uy, Initial residual = 2.80033e-06, Final residual = 2.80033e-06, No Iterations 0
DICPCG:  Solving for p, Initial residual = 1.04944e-06, Final residual = 6.42157e-07, No Iterations 1
time step continuity errors : sum local = 7.00109e-09, global = 2.75203e-19, cumulative = -1.30425e-18
DICPCG:  Solving for p, Initial residual = 9.81774e-07, Final residual = 9.81774e-07, No Iterations 0
time step continuity errors : sum local = 9.78595e-09, global = -4.82164e-19, cumulative = -1.78642e-18
ExecutionTime = 0.085074 s  ClockTime = 1 s

Time = 0.35s

Courant Number mean: 0.222155 max: 0.852132
smoothSolver:  Solving for T, Initial residual = 9.77275e-06, Final residual = 9.77275e-06, No Iterations 0
smoothSolver:  Solving for Ux, Initial residual = 1.2147e-06, Final residual = 1.2147e-06, No Iterations 0
smoothSolver:  Solving for Uy, Initial residual = 2.62892e-06, Final residual = 2.62892e-06, No Iterations 0
DICPCG:  Solving for p, Initial residual = 1.3621e-06, Final residual = 5.09693e-07, No Iterations 1
time step continuity errors : sum local = 5.92326e-09, global = -1.24904e-20, cumulative = -1.79891e-18
DICPCG:  Solving for p, Initial residual = 8.54973e-07, Final residual = 8.54973e-07, No Iterations 0
time step continuity errors : sum local = 8.75359e-09, global = 3.0341e-19, cumulative = -1.4955e-18
ExecutionTime = 0.08561 s  ClockTime = 1 s

Time = 0.355s

Courant Number mean: 0.222155 max: 0.852132
smoothSolver:  Solving for T, Initial residual = 9.77271e-06, Final residual = 9.77271e-06, No Iterations 0
smoothSolver:  Solving for Ux, Initial residual = 1.15533e-06, Final residual = 1.15533e-06, No Iterations 0
smoothSolver:  Solving for Uy, Initial residual = 2.50768e-06, Final residual = 2.50768e-06, No Iterations 0
DICPCG:  Solving for p, Initial residual = 1.28817e-06, Final residual = 5.29853e-07, No Iterations 1
time step continuity errors : sum local = 6.09447e-09, global = -8.63328e-19, cumulative = -2.35882e-18
DICPCG:  Solving for p, Initial residual = 8.19805e-07, Final residual = 8.19805e-07, No Iterations 0
time step continuity errors : sum local = 8.47215e-09, global = -9.07665e-19, cumulative = -3.26649e-18
ExecutionTime = 0.086153 s  ClockTime = 1 s

Time = 0.36s

Courant Number mean: 0.222155 max: 0.852132
smoothSolver:  Solving for T, Initial residual = 9.77268e-06, Final residual = 9.77268e-06, No Iterations 0
smoothSolver:  Solving for Ux, Initial residual = 1.08988e-06, Final residual = 1.08988e-06, No Iterations 0
smoothSolver:  Solving for Uy, Initial residual = 2.35665e-06, Final residual = 2.35665e-06, No Iterations 0
DICPCG:  Solving for p, Initial residual = 1.17397e-06, Final residual = 4.99695e-07, No Iterations 1
time step continuity errors : sum local = 5.8527e-09, global = 6.70264e-19, cumulative = -2.59623e-18
DICPCG:  Solving for p, Initial residual = 8.17943e-07, Final residual = 8.17943e-07, No Iterations 0
time step continuity errors : sum local = 8.46176e-09, global = -8.51913e-19, cumulative = -3.44814e-18
ExecutionTime = 0.086692 s  ClockTime = 1 s

Time = 0.365s

Courant Number mean: 0.222155 max: 0.852133
smoothSolver:  Solving for T, Initial residual = 9.77264e-06, Final residual = 9.77264e-06, No Iterations 0
smoothSolver:  Solving for Ux, Initial residual = 1.03172e-06, Final residual = 1.03172e-06, No Iterations 0
smoothSolver:  Solving for Uy, Initial residual = 2.23804e-06, Final residual = 2.23804e-06, No Iterations 0
DICPCG:  Solving for p, Initial residual = 1.19047e-06, Final residual = 4.51712e-07, No Iterations 1
time step continuity errors : sum local = 5.4647e-09, global = 6.62737e-19, cumulative = -2.7854e-18
DICPCG:  Solving for p, Initial residual = 7.29642e-07, Final residual = 7.29642e-07, No Iterations 0
time step continuity errors : sum local = 7.7434e-09, global = 7.20309e-19, cumulative = -2.06509e-18
ExecutionTime = 0.087223 s  ClockTime = 1 s

Time = 0.37s

Courant Number mean: 0.222156 max: 0.852133
smoothSolver:  Solving for T, Initial residual = 9.77262e-06, Final residual = 9.77262e-06, No Iterations 0
smoothSolver:  Solving for Ux, Initial residual = 9.75904e-07, Final residual = 9.75904e-07, No Iterations 0
smoothSolver:  Solving for Uy, Initial residual = 2.11145e-06, Final residual = 2.11145e-06, No Iterations 0
DICPCG:  Solving for p, Initial residual = 1.07484e-06, Final residual = 4.36076e-07, No Iterations 1
time step continuity errors : sum local = 5.3418e-09, global = 3.71487e-19, cumulative = -1.69361e-18
DICPCG:  Solving for p, Initial residual = 7.10739e-07, Final residual = 7.10739e-07, No Iterations 0
time step continuity errors : sum local = 7.59364e-09, global = -1.00254e-18, cumulative = -2.69615e-18
ExecutionTime = 0.087752 s  ClockTime = 1 s

Time = 0.375s

Courant Number mean: 0.222156 max: 0.852133
smoothSolver:  Solving for T, Initial residual = 9.77258e-06, Final residual = 9.77258e-06, No Iterations 0
smoothSolver:  Solving for Ux, Initial residual = 9.22796e-07, Final residual = 9.22796e-07, No Iterations 0
smoothSolver:  Solving for Uy, Initial residual = 2.00449e-06, Final residual = 2.00449e-06, No Iterations 0
DICPCG:  Solving for p, Initial residual = 1.03938e-06, Final residual = 4.13518e-07, No Iterations 1
time step continuity errors : sum local = 5.16232e-09, global = -8.88392e-19, cumulative = -3.58454e-18
DICPCG:  Solving for p, Initial residual = 6.7144e-07, Final residual = 6.7144e-07, No Iterations 0
time step continuity errors : sum local = 7.27704e-09, global = 1.0707e-18, cumulative = -2.51384e-18
ExecutionTime = 0.088243 s  ClockTime = 1 s

Time = 0.38s

Courant Number mean: 0.222156 max: 0.852133
smoothSolver:  Solving for T, Initial residual = 9.77255e-06, Final residual = 9.77255e-06, No Iterations 0
smoothSolver:  Solving for Ux, Initial residual = 8.73161e-07, Final residual = 8.73161e-07, No Iterations 0
smoothSolver:  Solving for Uy, Initial residual = 1.89415e-06, Final residual = 1.89415e-06, No Iterations 0
DICPCG:  Solving for p, Initial residual = 9.8907e-07, Final residual = 9.8907e-07, No Iterations 0
time step continuity errors : sum local = 9.88072e-09, global = -5.38908e-19, cumulative = -3.05275e-18
DICPCG:  Solving for p, Initial residual = 1.17755e-06, Final residual = 4.79547e-07, No Iterations 1
time step continuity errors : sum local = 5.70974e-09, global = -2.42364e-20, cumulative = -3.07698e-18
ExecutionTime = 0.088717 s  ClockTime = 1 s

Time = 0.385s

Courant Number mean: 0.222156 max: 0.852133
smoothSolver:  Solving for T, Initial residual = 9.77255e-06, Final residual = 9.77255e-06, No Iterations 0
smoothSolver:  Solving for Ux, Initial residual = 8.21438e-07, Final residual = 8.21438e-07, No Iterations 0
smoothSolver:  Solving for Uy, Initial residual = 1.78914e-06, Final residual = 1.78914e-06, No Iterations 0
DICPCG:  Solving for p, Initial residual = 9.61087e-07, Final residual = 9.61087e-07, No Iterations 0
time step continuity errors : sum local = 9.6576e-09, global = 6.37674e-19, cumulative = -2.43931e-18
DICPCG:  Solving for p, Initial residual = 1.24365e-06, Final residual = 4.17269e-07, No Iterations 1
time step continuity errors : sum local = 5.2048e-09, global = -8.08155e-19, cumulative = -3.24747e-18
ExecutionTime = 0.08919 s  ClockTime = 1 s

Time = 0.39s

Courant Number mean: 0.222156 max: 0.852133
smoothSolver:  Solving for T, Initial residual = 9.77251e-06, Final residual = 9.77251e-06, No Iterations 0
smoothSolver:  Solving for Ux, Initial residual = 7.77412e-07, Final residual = 7.77412e-07, No Iterations 0
smoothSolver:  Solving for Uy, Initial residual = 1.69408e-06, Final residual = 1.69408e-06, No Iterations 0
DICPCG:  Solving for p, Initial residual = 8.08375e-07, Final residual = 8.08375e-07, No Iterations 0
time step continuity errors : sum local = 8.41102e-09, global = -5.58347e-19, cumulative = -3.80581e-18
DICPCG:  Solving for p, Initial residual = 1.06663e-06, Final residual = 3.9886e-07, No Iterations 1
time step continuity errors : sum local = 5.05948e-09, global = 4.76622e-19, cumulative = -3.32919e-18
ExecutionTime = 0.089643 s  ClockTime = 1 s

Time = 0.395s

Courant Number mean: 0.222156 max: 0.852133
smoothSolver:  Solving for T, Initial residual = 9.77255e-06, Final residual = 9.77255e-06, No Iterations 0
smoothSolver:  Solving for Ux, Initial residual = 7.33308e-07, Final residual = 7.33308e-07, No Iterations 0
smoothSolver:  Solving for Uy, Initial residual = 1.60263e-06, Final residual = 1.60263e-06, No Iterations 0
DICPCG:  Solving for p, Initial residual = 7.35001e-07, Final residual = 7.35001e-07, No Iterations 0
time step continuity errors : sum local = 7.81531e-09, global = 2.38311e-19, cumulative = -3.09088e-18
DICPCG:  Solving for p, Initial residual = 9.41141e-07, Final residual = 9.41141e-07, No Iterations 0
time step continuity errors : sum local = 9.50509e-09, global = 1.03728e-19, cumulative = -2.98715e-18
ExecutionTime = 0.090092 s  ClockTime = 1 s

Time = 0.4s

Courant Number mean: 0.222157 max: 0.852133
smoothSolver:  Solving for T, Initial residual = 9.77261e-06, Final residual = 9.77261e-06, No Iterations 0
smoothSolver:  Solving for Ux, Initial residual = 7.00444e-07, Final residual = 7.00444e-07, No Iterations 0
smoothSolver:  Solving for Uy, Initial residual = 1.52989e-06, Final residual = 1.52989e-06, No Iterations 0
DICPCG:  Solving for p, Initial residual = 1.14758e-06, Final residual = 4.15286e-07, No Iterations 1
time step continuity errors : sum local = 5.19959e-09, global = -2.94642e-19, cumulative = -3.28179e-18
DICPCG:  Solving for p, Initial residual = 7.71089e-07, Final residual = 7.71089e-07, No Iterations 0
time step continuity errors : sum local = 8.11661e-09, global = 6.84078e-20, cumulative = -3.21338e-18
ExecutionTime = 0.092753 s  ClockTime = 1 s

Time = 0.405s

Courant Number mean: 0.222157 max: 0.852133
smoothSolver:  Solving for T, Initial residual = 9.77249e-06, Final residual = 9.77249e-06, No Iterations 0
smoothSolver:  Solving for Ux, Initial residual = 6.60859e-07, Final residual = 6.60859e-07, No Iterations 0
smoothSolver:  Solving for Uy, Initial residual = 1.44229e-06, Final residual = 1.44229e-06, No Iterations 0
DICPCG:  Solving for p, Initial residual = 1.18723e-06, Final residual = 3.72589e-07, No Iterations 1
time step continuity errors : sum local = 4.85401e-09, global = 3.66689e-19, cumulative = -2.8467e-18
DICPCG:  Solving for p, Initial residual = 6.22346e-07, Final residual = 6.22346e-07, No Iterations 0
time step continuity errors : sum local = 6.90149e-09, global = -1.94139e-19, cumulative = -3.04084e-18
ExecutionTime = 0.093313 s  ClockTime = 1 s

Time = 0.41s

Courant Number mean: 0.222157 max: 0.852133
smoothSolver:  Solving for T, Initial residual = 9.7726e-06, Final residual = 9.7726e-06, No Iterations 0
smoothSolver:  Solving for Ux, Initial residual = 6.24267e-07, Final residual = 6.24267e-07, No Iterations 0
smoothSolver:  Solving for Uy, Initial residual = 1.36632e-06, Final residual = 1.36632e-06, No Iterations 0
DICPCG:  Solving for p, Initial residual = 9.36715e-07, Final residual = 9.36715e-07, No Iterations 0
time step continuity errors : sum local = 9.47844e-09, global = -6.27913e-19, cumulative = -3.66875e-18
DICPCG:  Solving for p, Initial residual = 1.11561e-06, Final residual = 3.83533e-07, No Iterations 1
time step continuity errors : sum local = 4.94692e-09, global = -5.0152e-19, cumulative = -4.17027e-18
ExecutionTime = 0.093829 s  ClockTime = 1 s

Time = 0.415s

Courant Number mean: 0.222157 max: 0.852133
smoothSolver:  Solving for T, Initial residual = 9.77254e-06, Final residual = 9.77254e-06, No Iterations 0
smoothSolver:  Solving for Ux, Initial residual = 5.88964e-07, Final residual = 5.88964e-07, No Iterations 0
smoothSolver:  Solving for Uy, Initial residual = 1.28875e-06, Final residual = 1.28875e-06, No Iterations 0
DICPCG:  Solving for p, Initial residual = 8.22172e-07, Final residual = 8.22172e-07, No Iterations 0
time step continuity errors : sum local = 8.54275e-09, global = -1.89176e-19, cumulative = -4.35944e-18
DICPCG:  Solving for p, Initial residual = 1.09034e-06, Final residual = 3.39951e-07, No Iterations 1
time step continuity errors : sum local = 4.59216e-09, global = 3.47664e-19, cumulative = -4.01178e-18
ExecutionTime = 0.094316 s  ClockTime = 1 s

Time = 0.42s

Courant Number mean: 0.222157 max: 0.852133
smoothSolver:  Solving for T, Initial residual = 9.77259e-06, Final residual = 9.77259e-06, No Iterations 0
smoothSolver:  Solving for Ux, Initial residual = 5.5676e-07, Final residual = 5.5676e-07, No Iterations 0
smoothSolver:  Solving for Uy, Initial residual = 1.21823e-06, Final residual = 1.21823e-06, No Iterations 0
DICPCG:  Solving for p, Initial residual = 6.52791e-07, Final residual = 6.52791e-07, No Iterations 0
time step continuity errors : sum local = 7.1567e-09, global = 8.88392e-20, cumulative = -3.92294e-18
DICPCG:  Solving for p, Initial residual = 8.55998e-07, Final residual = 8.55998e-07, No Iterations 0
time step continuity errors : sum local = 8.82244e-09, global = 1.69572e-20, cumulative = -3.90598e-18
ExecutionTime = 0.094799 s  ClockTime = 1 s

Time = 0.425s

Courant Number mean: 0.222157 max: 0.852133
smoothSolver:  Solving for T, Initial residual = 9.77266e-06, Final residual = 9.77266e-06, No Iterations 0
smoothSolver:  Solving for Ux, Initial residual = 5.3127e-07, Final residual = 5.3127e-07, No Iterations 0
smoothSolver:  Solving for Uy, Initial residual = 1.16197e-06, Final residual = 1.16197e-06, No Iterations 0
DICPCG:  Solving for p, Initial residual = 1.05516e-06, Final residual = 3.43053e-07, No Iterations 1
time step continuity errors : sum local = 4.61856e-09, global = 1.45005e-19, cumulative = -3.76098e-18
DICPCG:  Solving for p, Initial residual = 6.60712e-07, Final residual = 6.60712e-07, No Iterations 0
time step continuity errors : sum local = 7.22251e-09, global = -3.03823e-19, cumulative = -4.0648e-18
ExecutionTime = 0.095269 s  ClockTime = 1 s

Time = 0.43s

Courant Number mean: 0.222157 max: 0.852133
smoothSolver:  Solving for T, Initial residual = 9.77256e-06, Final residual = 9.77256e-06, No Iterations 0
smoothSolver:  Solving for Ux, Initial residual = 5.00761e-07, Final residual = 5.00761e-07, No Iterations 0
smoothSolver:  Solving for Uy, Initial residual = 1.09352e-06, Final residual = 1.09352e-06, No Iterations 0
DICPCG:  Solving for p, Initial residual = 1.02808e-06, Final residual = 3.14801e-07, No Iterations 1
time step continuity errors : sum local = 4.38778e-09, global = 1.02314e-18, cumulative = -3.04166e-18
DICPCG:  Solving for p, Initial residual = 5.28833e-07, Final residual = 5.28833e-07, No Iterations 0
time step continuity errors : sum local = 6.14188e-09, global = -7.76723e-20, cumulative = -3.11933e-18
ExecutionTime = 0.095735 s  ClockTime = 1 s

Time = 0.435s

Courant Number mean: 0.222157 max: 0.852133
smoothSolver:  Solving for T, Initial residual = 9.77267e-06, Final residual = 9.77267e-06, No Iterations 0
smoothSolver:  Solving for Ux, Initial residual = 4.73777e-07, Final residual = 4.73777e-07, No Iterations 0
smoothSolver:  Solving for Uy, Initial residual = 1.036e-06, Final residual = 1.036e-06, No Iterations 0
DICPCG:  Solving for p, Initial residual = 7.97214e-07, Final residual = 7.97214e-07, No Iterations 0
time step continuity errors : sum local = 8.34169e-09, global = 4.14666e-19, cumulative = -2.70467e-18
DICPCG:  Solving for p, Initial residual = 9.49503e-07, Final residual = 9.49503e-07, No Iterations 0
time step continuity errors : sum local = 9.59001e-09, global = 1.05648e-18, cumulative = -1.64819e-18
ExecutionTime = 0.096189 s  ClockTime = 1 s

Time = 0.44s

Courant Number mean: 0.222157 max: 0.852133
smoothSolver:  Solving for T, Initial residual = 9.7727e-06, Final residual = 9.7727e-06, No Iterations 0
smoothSolver:  Solving for Ux, Initial residual = 4.52474e-07, Final residual = 4.52474e-07, No Iterations 0
smoothSolver:  Solving for Uy, Initial residual = 9.88237e-07, Final residual = 9.88237e-07, No Iterations 0
DICPCG:  Solving for p, Initial residual = 1.1018e-06, Final residual = 3.64805e-07, No Iterations 1
time step continuity errors : sum local = 4.79731e-09, global = -3.68013e-19, cumulative = -2.01621e-18
DICPCG:  Solving for p, Initial residual = 7.35686e-07, Final residual = 7.35686e-07, No Iterations 0
time step continuity errors : sum local = 7.83751e-09, global = 2.20526e-19, cumulative = -1.79568e-18
ExecutionTime = 0.09662 s  ClockTime = 1 s

Time = 0.445s

Courant Number mean: 0.222158 max: 0.852133
smoothSolver:  Solving for T, Initial residual = 9.7726e-06, Final residual = 9.7726e-06, No Iterations 0
smoothSolver:  Solving for Ux, Initial residual = 4.23817e-07, Final residual = 4.23817e-07, No Iterations 0
smoothSolver:  Solving for Uy, Initial residual = 9.25803e-07, Final residual = 9.25803e-07, No Iterations 0
DICPCG:  Solving for p, Initial residual = 1.14725e-06, Final residual = 3.15509e-07, No Iterations 1
time step continuity errors : sum local = 4.39374e-09, global = -2.10766e-19, cumulative = -2.00645e-18
DICPCG:  Solving for p, Initial residual = 5.37999e-07, Final residual = 5.37999e-07, No Iterations 0
time step continuity errors : sum local = 6.21703e-09, global = -4.02506e-19, cumulative = -2.40895e-18
ExecutionTime = 0.097056 s  ClockTime = 1 s

Time = 0.45s

Courant Number mean: 0.222158 max: 0.852133
smoothSolver:  Solving for T, Initial residual = 9.77271e-06, Final residual = 9.77271e-06, No Iterations 0
smoothSolver:  Solving for Ux, Initial residual = 4.0117e-07, Final residual = 4.0117e-07, No Iterations 0
smoothSolver:  Solving for Uy, Initial residual = 8.76907e-07, Final residual = 8.76907e-07, No Iterations 0
DICPCG:  Solving for p, Initial residual = 8.28169e-07, Final residual = 8.28169e-07, No Iterations 0
time step continuity errors : sum local = 8.59537e-09, global = -8.5729e-19, cumulative = -3.26624e-18
DICPCG:  Solving for p, Initial residual = 9.87115e-07, Final residual = 9.87115e-07, No Iterations 0
time step continuity errors : sum local = 9.89828e-09, global = 7.67045e-19, cumulative = -2.4992e-18
ExecutionTime = 0.097486 s  ClockTime = 1 s

Time = 0.455s

Courant Number mean: 0.222158 max: 0.852133
smoothSolver:  Solving for T, Initial residual = 9.77274e-06, Final residual = 9.77274e-06, No Iterations 0
smoothSolver:  Solving for Ux, Initial residual = 3.82841e-07, Final residual = 3.82841e-07, No Iterations 0
smoothSolver:  Solving for Uy, Initial residual = 8.35985e-07, Final residual = 8.35985e-07, No Iterations 0
DICPCG:  Solving for p, Initial residual = 1.1407e-06, Final residual = 3.32441e-07, No Iterations 1
time step continuity errors : sum local = 4.53238e-09, global = 1.55262e-19, cumulative = -2.34394e-18
DICPCG:  Solving for p, Initial residual = 6.92524e-07, Final residual = 6.92524e-07, No Iterations 0
time step continuity errors : sum local = 7.48405e-09, global = -7.17166e-20, cumulative = -2.41565e-18
ExecutionTime = 0.097922 s  ClockTime = 1 s

Time = 0.46s

Courant Number mean: 0.222158 max: 0.852133
smoothSolver:  Solving for T, Initial residual = 9.77265e-06, Final residual = 9.77265e-06, No Iterations 0
smoothSolver:  Solving for Ux, Initial residual = 3.59325e-07, Final residual = 3.59325e-07, No Iterations 0
smoothSolver:  Solving for Uy, Initial residual = 7.85608e-07, Final residual = 7.85608e-07, No Iterations 0
DICPCG:  Solving for p, Initial residual = 1.10589e-06, Final residual = 2.966e-07, No Iterations 1
time step continuity errors : sum local = 4.23931e-09, global = 1.02124e-18, cumulative = -1.39441e-18
DICPCG:  Solving for p, Initial residual = 5.03392e-07, Final residual = 5.03392e-07, No Iterations 0
time step continuity errors : sum local = 5.93391e-09, global = 1.44757e-20, cumulative = -1.37994e-18
ExecutionTime = 0.098374 s  ClockTime = 1 s

Time = 0.465s

Courant Number mean: 0.222158 max: 0.852134
smoothSolver:  Solving for T, Initial residual = 9.77275e-06, Final residual = 9.77275e-06, No Iterations 0
smoothSolver:  Solving for Ux, Initial residual = 3.39851e-07, Final residual = 3.39851e-07, No Iterations 0
smoothSolver:  Solving for Uy, Initial residual = 7.43725e-07, Final residual = 7.43725e-07, No Iterations 0
DICPCG:  Solving for p, Initial residual = 7.77209e-07, Final residual = 7.77209e-07, No Iterations 0
time step continuity errors : sum local = 8.17819e-09, global = -3.27729e-19, cumulative = -1.70767e-18
DICPCG:  Solving for p, Initial residual = 9.23992e-07, Final residual = 9.23992e-07, No Iterations 0
time step continuity errors : sum local = 9.38138e-09, global = 3.75126e-19, cumulative = -1.33254e-18
ExecutionTime = 0.098799 s  ClockTime = 1 s

Time = 0.47s

Courant Number mean: 0.222158 max: 0.852134
smoothSolver:  Solving for T, Initial residual = 9.77278e-06, Final residual = 9.77278e-06, No Iterations 0
smoothSolver:  Solving for Ux, Initial residual = 3.24276e-07, Final residual = 3.24276e-07, No Iterations 0
smoothSolver:  Solving for Uy, Initial residual = 7.08931e-07, Final residual = 7.08931e-07, No Iterations 0
DICPCG:  Solving for p, Initial residual = 1.06357e-06, Final residual = 3.03848e-07, No Iterations 1
time step continuity errors : sum local = 4.29814e-09, global = 7.70436e-19, cumulative = -5.62106e-19
DICPCG:  Solving for p, Initial residual = 6.37426e-07, Final residual = 6.37426e-07, No Iterations 0
time step continuity errors : sum local = 7.03255e-09, global = -5.61573e-19, cumulative = -1.12368e-18
ExecutionTime = 0.099234 s  ClockTime = 1 s

Time = 0.475s

Courant Number mean: 0.222158 max: 0.852134
smoothSolver:  Solving for T, Initial residual = 9.7727e-06, Final residual = 9.7727e-06, No Iterations 0
[...]
smoothSolver:  Solving for Ux, Initial residual = 1.31358e-08, Final residual = 1.31358e-08, No Iterations 0
smoothSolver:  Solving for Uy, Initial residual = 3.19633e-08, Final residual = 3.19633e-08, No Iterations 0
DICPCG:  Solving for p, Initial residual = 1.09011e-06, Final residual = 8.32414e-08, No Iterations 1
time step continuity errors : sum local = 9.92403e-10, global = -5.60663e-19, cumulative = -6.45238e-19
DICPCG:  Solving for p, Initial residual = 4.33326e-07, Final residual = 4.33326e-07, No Iterations 0
time step continuity errors : sum local = 3.86223e-09, global = -2.74045e-19, cumulative = -9.19283e-19
ExecutionTime = 0.765925 s  ClockTime = 1 s

Time = 4.89s

Courant Number mean: 0.222159 max: 0.852134
smoothSolver:  Solving for T, Initial residual = 9.78161e-06, Final residual = 9.78161e-06, No Iterations 0
smoothSolver:  Solving for Ux, Initial residual = 2.78275e-08, Final residual = 2.78275e-08, No Iterations 0
smoothSolver:  Solving for Uy, Initial residual = 6.66782e-08, Final residual = 6.66782e-08, No Iterations 0
DICPCG:  Solving for p, Initial residual = 8.12367e-07, Final residual = 8.12367e-07, No Iterations 0
time step continuity errors : sum local = 6.96932e-09, global = -6.16332e-19, cumulative = -1.53562e-18
DICPCG:  Solving for p, Initial residual = 1.01829e-06, Final residual = 7.94822e-08, No Iterations 1
time step continuity errors : sum local = 9.61482e-10, global = -3.46258e-19, cumulative = -1.88187e-18
ExecutionTime = 0.767344 s  ClockTime = 1 s

Time = 4.895s

Courant Number mean: 0.222159 max: 0.852134
smoothSolver:  Solving for T, Initial residual = 9.78161e-06, Final residual = 9.78161e-06, No Iterations 0
smoothSolver:  Solving for Ux, Initial residual = 2.88525e-08, Final residual = 2.88525e-08, No Iterations 0
smoothSolver:  Solving for Uy, Initial residual = 6.90013e-08, Final residual = 6.90013e-08, No Iterations 0
DICPCG:  Solving for p, Initial residual = 4.1852e-07, Final residual = 4.1852e-07, No Iterations 0
time step continuity errors : sum local = 3.73883e-09, global = -2.27475e-19, cumulative = -2.10935e-18
DICPCG:  Solving for p, Initial residual = 6.31757e-07, Final residual = 6.31757e-07, No Iterations 0
time step continuity errors : sum local = 5.48638e-09, global = -6.39907e-19, cumulative = -2.74925e-18
ExecutionTime = 0.76789 s  ClockTime = 1 s

Time = 4.9s

Courant Number mean: 0.222159 max: 0.852134
smoothSolver:  Solving for T, Initial residual = 9.78161e-06, Final residual = 9.78161e-06, No Iterations 0
smoothSolver:  Solving for Ux, Initial residual = 1.48636e-08, Final residual = 1.48636e-08, No Iterations 0
smoothSolver:  Solving for Uy, Initial residual = 3.56882e-08, Final residual = 3.56882e-08, No Iterations 0
DICPCG:  Solving for p, Initial residual = 8.22117e-07, Final residual = 8.22117e-07, No Iterations 0
time step continuity errors : sum local = 7.04658e-09, global = 2.80332e-19, cumulative = -2.46892e-18
DICPCG:  Solving for p, Initial residual = 9.32216e-07, Final residual = 9.32216e-07, No Iterations 0
time step continuity errors : sum local = 7.94918e-09, global = -4.58175e-19, cumulative = -2.9271e-18
ExecutionTime = 0.77011 s  ClockTime = 1 s

Time = 4.905s

Courant Number mean: 0.222159 max: 0.852134
smoothSolver:  Solving for T, Initial residual = 9.7816e-06, Final residual = 9.7816e-06, No Iterations 0
smoothSolver:  Solving for Ux, Initial residual = 7.94968e-09, Final residual = 7.94968e-09, No Iterations 0
smoothSolver:  Solving for Uy, Initial residual = 1.92998e-08, Final residual = 1.92998e-08, No Iterations 0
DICPCG:  Solving for p, Initial residual = 1.03093e-06, Final residual = 7.83228e-08, No Iterations 1
time step continuity errors : sum local = 9.49964e-10, global = 4.49325e-19, cumulative = -2.47777e-18
DICPCG:  Solving for p, Initial residual = 4.41051e-07, Final residual = 4.41051e-07, No Iterations 0
time step continuity errors : sum local = 3.92344e-09, global = -3.92414e-19, cumulative = -2.87019e-18
ExecutionTime = 0.770616 s  ClockTime = 1 s

Time = 4.91s

Courant Number mean: 0.222159 max: 0.852134
smoothSolver:  Solving for T, Initial residual = 9.78162e-06, Final residual = 9.78162e-06, No Iterations 0
smoothSolver:  Solving for Ux, Initial residual = 2.86624e-08, Final residual = 2.86624e-08, No Iterations 0
smoothSolver:  Solving for Uy, Initial residual = 6.85935e-08, Final residual = 6.85935e-08, No Iterations 0
DICPCG:  Solving for p, Initial residual = 8.29161e-07, Final residual = 8.29161e-07, No Iterations 0
time step continuity errors : sum local = 7.10485e-09, global = -8.10472e-19, cumulative = -3.68066e-18
DICPCG:  Solving for p, Initial residual = 1.04325e-06, Final residual = 8.04448e-08, No Iterations 1
time step continuity errors : sum local = 9.67103e-10, global = 1.26947e-18, cumulative = -2.41119e-18
ExecutionTime = 0.771066 s  ClockTime = 1 s

Time = 4.915s

Courant Number mean: 0.222159 max: 0.852134
smoothSolver:  Solving for T, Initial residual = 9.78162e-06, Final residual = 9.78162e-06, No Iterations 0
smoothSolver:  Solving for Ux, Initial residual = 2.97028e-08, Final residual = 2.97028e-08, No Iterations 0
smoothSolver:  Solving for Uy, Initial residual = 7.09761e-08, Final residual = 7.09761e-08, No Iterations 0
DICPCG:  Solving for p, Initial residual = 4.28865e-07, Final residual = 4.28865e-07, No Iterations 0
time step continuity errors : sum local = 3.82136e-09, global = -1.09635e-18, cumulative = -3.50753e-18
DICPCG:  Solving for p, Initial residual = 6.47091e-07, Final residual = 6.47091e-07, No Iterations 0
time step continuity errors : sum local = 5.60983e-09, global = 6.12114e-21, cumulative = -3.50141e-18
ExecutionTime = 0.771597 s  ClockTime = 1 s

Time = 4.92s

Courant Number mean: 0.222159 max: 0.852134
smoothSolver:  Solving for T, Initial residual = 9.78162e-06, Final residual = 9.78162e-06, No Iterations 0
smoothSolver:  Solving for Ux, Initial residual = 1.5328e-08, Final residual = 1.5328e-08, No Iterations 0
smoothSolver:  Solving for Uy, Initial residual = 3.68482e-08, Final residual = 3.68482e-08, No Iterations 0
DICPCG:  Solving for p, Initial residual = 8.44377e-07, Final residual = 8.44377e-07, No Iterations 0
time step continuity errors : sum local = 7.22684e-09, global = 4.54039e-19, cumulative = -3.04737e-18
DICPCG:  Solving for p, Initial residual = 9.59164e-07, Final residual = 9.59164e-07, No Iterations 0
time step continuity errors : sum local = 8.16789e-09, global = 5.08468e-19, cumulative = -2.5389e-18
ExecutionTime = 0.77206 s  ClockTime = 1 s

Time = 4.925s

Courant Number mean: 0.222159 max: 0.852134
smoothSolver:  Solving for T, Initial residual = 9.78162e-06, Final residual = 9.78162e-06, No Iterations 0
smoothSolver:  Solving for Ux, Initial residual = 8.23859e-09, Final residual = 8.23859e-09, No Iterations 0
smoothSolver:  Solving for Uy, Initial residual = 1.99152e-08, Final residual = 1.99152e-08, No Iterations 0
DICPCG:  Solving for p, Initial residual = 1.06154e-06, Final residual = 8.02663e-08, No Iterations 1
time step continuity errors : sum local = 9.63774e-10, global = -4.01596e-19, cumulative = -2.9405e-18
DICPCG:  Solving for p, Initial residual = 4.54431e-07, Final residual = 4.54431e-07, No Iterations 0
time step continuity errors : sum local = 4.03098e-09, global = 1.56254e-19, cumulative = -2.78424e-18
ExecutionTime = 0.772522 s  ClockTime = 1 s

Time = 4.93s

Courant Number mean: 0.222159 max: 0.852134
smoothSolver:  Solving for T, Initial residual = 9.78163e-06, Final residual = 9.78163e-06, No Iterations 0
smoothSolver:  Solving for Ux, Initial residual = 2.96346e-08, Final residual = 2.96346e-08, No Iterations 0
smoothSolver:  Solving for Uy, Initial residual = 7.09766e-08, Final residual = 7.09766e-08, No Iterations 0
DICPCG:  Solving for p, Initial residual = 8.55537e-07, Final residual = 8.55537e-07, No Iterations 0
time step continuity errors : sum local = 7.31893e-09, global = -2.11427e-19, cumulative = -2.99567e-18
DICPCG:  Solving for p, Initial residual = 1.07773e-06, Final residual = 8.19867e-08, No Iterations 1
time step continuity errors : sum local = 9.77632e-10, global = 9.88481e-20, cumulative = -2.89682e-18
ExecutionTime = 0.772976 s  ClockTime = 1 s

Time = 4.935s

Courant Number mean: 0.222159 max: 0.852134
smoothSolver:  Solving for T, Initial residual = 9.78163e-06, Final residual = 9.78163e-06, No Iterations 0
smoothSolver:  Solving for Ux, Initial residual = 3.07697e-08, Final residual = 3.07697e-08, No Iterations 0
smoothSolver:  Solving for Uy, Initial residual = 7.3475e-08, Final residual = 7.3475e-08, No Iterations 0
DICPCG:  Solving for p, Initial residual = 4.4391e-07, Final residual = 4.4391e-07, No Iterations 0
time step continuity errors : sum local = 3.94254e-09, global = -7.24776e-19, cumulative = -3.6216e-18
DICPCG:  Solving for p, Initial residual = 6.70367e-07, Final residual = 6.70367e-07, No Iterations 0
time step continuity errors : sum local = 5.79846e-09, global = -5.18642e-20, cumulative = -3.67346e-18
ExecutionTime = 0.773417 s  ClockTime = 1 s

Time = 4.94s

Courant Number mean: 0.222159 max: 0.852134
smoothSolver:  Solving for T, Initial residual = 9.78164e-06, Final residual = 9.78164e-06, No Iterations 0
smoothSolver:  Solving for Ux, Initial residual = 1.59246e-08, Final residual = 1.59246e-08, No Iterations 0
smoothSolver:  Solving for Uy, Initial residual = 3.81991e-08, Final residual = 3.81991e-08, No Iterations 0
DICPCG:  Solving for p, Initial residual = 8.74864e-07, Final residual = 8.74864e-07, No Iterations 0
time step continuity errors : sum local = 7.47457e-09, global = 2.52042e-19, cumulative = -3.42142e-18
DICPCG:  Solving for p, Initial residual = 9.94206e-07, Final residual = 9.94206e-07, No Iterations 0
time step continuity errors : sum local = 8.45295e-09, global = 1.05573e-18, cumulative = -2.36569e-18
ExecutionTime = 0.774493 s  ClockTime = 1 s

Time = 4.945s

Courant Number mean: 0.222159 max: 0.852134
smoothSolver:  Solving for T, Initial residual = 9.78163e-06, Final residual = 9.78163e-06, No Iterations 0
smoothSolver:  Solving for Ux, Initial residual = 8.57612e-09, Final residual = 8.57612e-09, No Iterations 0
smoothSolver:  Solving for Uy, Initial residual = 2.06458e-08, Final residual = 2.06458e-08, No Iterations 0
DICPCG:  Solving for p, Initial residual = 1.10101e-06, Final residual = 8.22496e-08, No Iterations 1
time step continuity errors : sum local = 9.77848e-10, global = -2.21684e-19, cumulative = -2.58738e-18
DICPCG:  Solving for p, Initial residual = 4.7142e-07, Final residual = 4.7142e-07, No Iterations 0
time step continuity errors : sum local = 4.16806e-09, global = -3.84639e-19, cumulative = -2.97201e-18
ExecutionTime = 0.774982 s  ClockTime = 1 s

Time = 4.95s

Courant Number mean: 0.222159 max: 0.852134
smoothSolver:  Solving for T, Initial residual = 9.78164e-06, Final residual = 9.78164e-06, No Iterations 0
smoothSolver:  Solving for Ux, Initial residual = 3.08023e-08, Final residual = 3.08023e-08, No Iterations 0
smoothSolver:  Solving for Uy, Initial residual = 7.37327e-08, Final residual = 7.37327e-08, No Iterations 0
DICPCG:  Solving for p, Initial residual = 8.87328e-07, Final residual = 8.87328e-07, No Iterations 0
time step continuity errors : sum local = 7.57735e-09, global = -8.78714e-19, cumulative = -3.85073e-18
DICPCG:  Solving for p, Initial residual = 1.11917e-06, Final residual = 8.41114e-08, No Iterations 1
time step continuity errors : sum local = 9.92865e-10, global = 1.58488e-18, cumulative = -2.26585e-18
ExecutionTime = 0.775574 s  ClockTime = 1 s

Time = 4.955s

Courant Number mean: 0.222159 max: 0.852134
smoothSolver:  Solving for T, Initial residual = 9.78165e-06, Final residual = 9.78165e-06, No Iterations 0
smoothSolver:  Solving for Ux, Initial residual = 3.20316e-08, Final residual = 3.20316e-08, No Iterations 0
smoothSolver:  Solving for Uy, Initial residual = 7.64087e-08, Final residual = 7.64087e-08, No Iterations 0
DICPCG:  Solving for p, Initial residual = 4.62791e-07, Final residual = 4.62791e-07, No Iterations 0
time step continuity errors : sum local = 4.0951e-09, global = -3.79428e-19, cumulative = -2.64528e-18
DICPCG:  Solving for p, Initial residual = 6.97143e-07, Final residual = 6.97143e-07, No Iterations 0
time step continuity errors : sum local = 6.01575e-09, global = -4.51723e-19, cumulative = -3.097e-18
ExecutionTime = 0.776305 s  ClockTime = 1 s

Time = 4.96s

Courant Number mean: 0.222159 max: 0.852134
smoothSolver:  Solving for T, Initial residual = 9.78165e-06, Final residual = 9.78165e-06, No Iterations 0
smoothSolver:  Solving for Ux, Initial residual = 1.65993e-08, Final residual = 1.65993e-08, No Iterations 0
smoothSolver:  Solving for Uy, Initial residual = 3.97239e-08, Final residual = 3.97239e-08, No Iterations 0
DICPCG:  Solving for p, Initial residual = 9.09831e-07, Final residual = 9.09831e-07, No Iterations 0
time step continuity errors : sum local = 7.75901e-09, global = -1.66263e-19, cumulative = -3.26326e-18
DICPCG:  Solving for p, Initial residual = 1.03425e-06, Final residual = 7.83261e-08, No Iterations 1
time step continuity errors : sum local = 9.43462e-10, global = 1.14151e-20, cumulative = -3.25185e-18
ExecutionTime = 0.776818 s  ClockTime = 1 s

Time = 4.965s

Courant Number mean: 0.222159 max: 0.852134
smoothSolver:  Solving for T, Initial residual = 9.78166e-06, Final residual = 9.78166e-06, No Iterations 0
smoothSolver:  Solving for Ux, Initial residual = 3.55008e-08, Final residual = 3.55008e-08, No Iterations 0
smoothSolver:  Solving for Uy, Initial residual = 8.47088e-08, Final residual = 8.47088e-08, No Iterations 0
DICPCG:  Solving for p, Initial residual = 5.03481e-07, Final residual = 5.03481e-07, No Iterations 0
time step continuity errors : sum local = 4.42866e-09, global = 3.26571e-19, cumulative = -2.92528e-18
DICPCG:  Solving for p, Initial residual = 7.65147e-07, Final residual = 7.65147e-07, No Iterations 0
time step continuity errors : sum local = 6.57359e-09, global = 1.31853e-18, cumulative = -1.60675e-18
ExecutionTime = 0.778116 s  ClockTime = 1 s

Time = 4.97s

Courant Number mean: 0.222159 max: 0.852134
smoothSolver:  Solving for T, Initial residual = 9.78166e-06, Final residual = 9.78166e-06, No Iterations 0
smoothSolver:  Solving for Ux, Initial residual = 1.84283e-08, Final residual = 1.84283e-08, No Iterations 0
smoothSolver:  Solving for Uy, Initial residual = 4.41142e-08, Final residual = 4.41142e-08, No Iterations 0
DICPCG:  Solving for p, Initial residual = 1.00065e-06, Final residual = 7.65537e-08, No Iterations 1
time step continuity errors : sum local = 9.28788e-10, global = -4.86879e-19, cumulative = -2.09363e-18
DICPCG:  Solving for p, Initial residual = 3.51688e-07, Final residual = 3.51688e-07, No Iterations 0
time step continuity errors : sum local = 3.1828e-09, global = 1.50778e-18, cumulative = -5.85846e-19
ExecutionTime = 0.778642 s  ClockTime = 1 s

Time = 4.975s

Courant Number mean: 0.222159 max: 0.852134
smoothSolver:  Solving for T, Initial residual = 9.78166e-06, Final residual = 9.78166e-06, No Iterations 0
smoothSolver:  Solving for Ux, Initial residual = 2.20789e-08, Final residual = 2.20789e-08, No Iterations 0
smoothSolver:  Solving for Uy, Initial residual = 5.29136e-08, Final residual = 5.29136e-08, No Iterations 0
DICPCG:  Solving for p, Initial residual = 6.53746e-07, Final residual = 6.53746e-07, No Iterations 0
time step continuity errors : sum local = 5.65802e-09, global = -1.77761e-19, cumulative = -7.63608e-19
DICPCG:  Solving for p, Initial residual = 8.17074e-07, Final residual = 8.17074e-07, No Iterations 0
time step continuity errors : sum local = 6.99677e-09, global = -2.30204e-19, cumulative = -9.93812e-19
ExecutionTime = 0.779125 s  ClockTime = 1 s

Time = 4.98s

Courant Number mean: 0.222159 max: 0.852134
smoothSolver:  Solving for T, Initial residual = 9.78166e-06, Final residual = 9.78166e-06, No Iterations 0
smoothSolver:  Solving for Ux, Initial residual = 1.15365e-08, Final residual = 1.15365e-08, No Iterations 0
smoothSolver:  Solving for Uy, Initial residual = 2.77041e-08, Final residual = 2.77041e-08, No Iterations 0
DICPCG:  Solving for p, Initial residual = 9.64052e-07, Final residual = 9.64052e-07, No Iterations 0
time step continuity errors : sum local = 8.20158e-09, global = 2.57336e-19, cumulative = -7.36476e-19
DICPCG:  Solving for p, Initial residual = 1.04999e-06, Final residual = 7.88919e-08, No Iterations 1
time step continuity errors : sum local = 9.46053e-10, global = 6.43547e-20, cumulative = -6.72121e-19
ExecutionTime = 0.779623 s  ClockTime = 1 s

Time = 4.985s

Courant Number mean: 0.222159 max: 0.852134
smoothSolver:  Solving for T, Initial residual = 9.78167e-06, Final residual = 9.78167e-06, No Iterations 0
smoothSolver:  Solving for Ux, Initial residual = 3.88084e-08, Final residual = 3.88084e-08, No Iterations 0
smoothSolver:  Solving for Uy, Initial residual = 9.28742e-08, Final residual = 9.28742e-08, No Iterations 0
DICPCG:  Solving for p, Initial residual = 5.47751e-07, Final residual = 5.47751e-07, No Iterations 0
time step continuity errors : sum local = 4.78949e-09, global = 4.30961e-20, cumulative = -6.29025e-19
DICPCG:  Solving for p, Initial residual = 8.35546e-07, Final residual = 8.35546e-07, No Iterations 0
time step continuity errors : sum local = 7.14861e-09, global = -1.0257e-19, cumulative = -7.31596e-19
ExecutionTime = 0.7801 s  ClockTime = 1 s

Time = 4.99s

Courant Number mean: 0.222159 max: 0.852134
smoothSolver:  Solving for T, Initial residual = 9.78167e-06, Final residual = 9.78167e-06, No Iterations 0
smoothSolver:  Solving for Ux, Initial residual = 2.01724e-08, Final residual = 2.01724e-08, No Iterations 0
smoothSolver:  Solving for Uy, Initial residual = 4.83889e-08, Final residual = 4.83889e-08, No Iterations 0
DICPCG:  Solving for p, Initial residual = 1.09503e-06, Final residual = 8.20728e-08, No Iterations 1
time step continuity errors : sum local = 9.71823e-10, global = 6.02187e-20, cumulative = -6.71377e-19
DICPCG:  Solving for p, Initial residual = 3.88052e-07, Final residual = 3.88052e-07, No Iterations 0
time step continuity errors : sum local = 3.47862e-09, global = -8.13119e-19, cumulative = -1.4845e-18
ExecutionTime = 0.782489 s  ClockTime = 1 s

Time = 4.995s

Courant Number mean: 0.222159 max: 0.852134
smoothSolver:  Solving for T, Initial residual = 9.78168e-06, Final residual = 9.78168e-06, No Iterations 0
smoothSolver:  Solving for Ux, Initial residual = 2.42412e-08, Final residual = 2.42412e-08, No Iterations 0
smoothSolver:  Solving for Uy, Initial residual = 5.82434e-08, Final residual = 5.82434e-08, No Iterations 0
DICPCG:  Solving for p, Initial residual = 7.20696e-07, Final residual = 7.20696e-07, No Iterations 0
time step continuity errors : sum local = 6.20456e-09, global = -5.89283e-19, cumulative = -2.07378e-18
DICPCG:  Solving for p, Initial residual = 9.01342e-07, Final residual = 9.01342e-07, No Iterations 0
time step continuity errors : sum local = 7.68529e-09, global = 1.14647e-19, cumulative = -1.95913e-18
ExecutionTime = 0.783448 s  ClockTime = 2 s

Time = 5s

Courant Number mean: 0.222159 max: 0.852134
smoothSolver:  Solving for T, Initial residual = 9.78168e-06, Final residual = 9.78168e-06, No Iterations 0
smoothSolver:  Solving for Ux, Initial residual = 1.27164e-08, Final residual = 1.27164e-08, No Iterations 0
smoothSolver:  Solving for Uy, Initial residual = 3.06069e-08, Final residual = 3.06069e-08, No Iterations 0
DICPCG:  Solving for p, Initial residual = 1.0638e-06, Final residual = 8.00316e-08, No Iterations 1
time step continuity errors : sum local = 9.53207e-10, global = 3.51469e-19, cumulative = -1.60766e-18
DICPCG:  Solving for p, Initial residual = 4.22525e-07, Final residual = 4.22525e-07, No Iterations 0
time step continuity errors : sum local = 3.76081e-09, global = -6.87056e-19, cumulative = -2.29472e-18
ExecutionTime = 0.788466 s  ClockTime = 2 s

End

